zc413f2949||acquisto switch enginius||23-AFFIDAMENTO IN ECONOMIA - AFFIDAMENTO DIRETTO||04146690278||TELEMACO GROUP SRL||950.00||2016_80014550240
z4e153b512||ripristino centralino dopo guasto||23-AFFIDAMENTO IN ECONOMIA - AFFIDAMENTO DIRETTO||04146690278||TELEMACO GROUP SRL||1878.00||2016_80014550240
za612c27f5||interfaccia switch phoenix||23-AFFIDAMENTO IN ECONOMIA - AFFIDAMENTO DIRETTO||04146690278||TELEMACO GROUP SRL||780.00||2016_80014550240
