ZC015CC91D||Trasloco centralini telefonici del Comune di Vobarno. ANNO 2015||23-AFFIDAMENTO IN ECONOMIA - AFFIDAMENTO DIRETTO||02235360985||TELEMACO S.R.L.||1674.50||2016_00435460175
ZDB1B4A18F||REALIZZAZIONE RETE CABLATA||23-AFFIDAMENTO IN ECONOMIA - AFFIDAMENTO DIRETTO||02235360985||TELEMACO S.R.L.||8928.43||2017_01629350198
ZE81C8C472||OPERE DI CABLAGGIO E REAQLIZZAZIONE PUNTI RETE||23-AFFIDAMENTO IN ECONOMIA - AFFIDAMENTO DIRETTO||02235360985||TELEMACO S.R.L.||29205.27||2017_01629350198
