ZE8184C04D||INTERVENTI DI RIPARAZIONE VARIA SU IMPIANTO DI ILLUMINAZIONE PUBBLICA||23-AFFIDAMENTO IN ECONOMIA - AFFIDAMENTO DIRETTO||02199370509||PIERINI IMPIANTI SRL UNIPERSONALE||2392.00||2017_00230610503
Z1B187D345||SOSTITUZIONE DI TESA AEREA DI PALO ESISTENTE SITO IN VIA DELLA FONTINA, LOC. LUGNANO||23-AFFIDAMENTO IN ECONOMIA - AFFIDAMENTO DIRETTO||02199370509||PIERINI IMPIANTI SRL UNIPERSONALE||1550.00||2017_00230610503
ZE0187FC9A||SINISTRO COMUNE DI VICOPISANO/VITTORIA ASSICURAZIONI (RIPRISTINO ILLUMINAZIONE PUBBLICA ALLO SPARTITRAFFICO INCROCIO VIA PROV. VICARESE E VIA PROV. CUCIGLIANA-LORENZANA)||23-AFFIDAMENTO IN ECONOMIA - AFFIDAMENTO DIRETTO||02199370509||PIERINI IMPIANTI SRL UNIPERSONALE||955.97||2017_00230610503
Z7219C2F5C||INSTALLAZIONE DI NUOVO PALO DI DERIVAZIONE DI LINEA AEREA DI ILLUMINAZIONE PUBBLICA IN VIA DELLA FONTINA LOC. LUGNANO||23-AFFIDAMENTO IN ECONOMIA - AFFIDAMENTO DIRETTO||02199370509||PIERINI IMPIANTI SRL UNIPERSONALE||840.00||2017_00230610503
Z6A1981AF7||INTERVENTO DI RIPRISTINO DI N.40 CORPI ILLUMINANTI IN VIA TELEMACO SIGNORINI A CAPRONA||23-AFFIDAMENTO IN ECONOMIA - AFFIDAMENTO DIRETTO||02199370509||PIERINI IMPIANTI SRL UNIPERSONALE||680.00||2017_00230610503
Z171C6BC5A||FORNITURA E INSTALLAZIONE DI LUMINARIE NATALIZIE||23-AFFIDAMENTO IN ECONOMIA - AFFIDAMENTO DIRETTO||02199370509||PIERINI IMPIANTI SRL UNIPERSONALE||3200.00||2017_00230610503
Z251C90A72||RIPRISTINO ILLUMINAZIONE PUBBLICA MEDIANTE COMPLETA SOSTITUZIONE DI CORPO ILLUMINANTE INCIDENTATO IN VIA BUTESE, LOC. IL TERMINE||23-AFFIDAMENTO IN ECONOMIA - AFFIDAMENTO DIRETTO||02199370509||PIERINI IMPIANTI SRL UNIPERSONALE||1385.00||2017_00230610503
Z931A4B7EA||Manutenzione impianti elettrici||08-AFFIDAMENTO IN ECONOMIA - COTTIMO FIDUCIARIO||02199370509||PIERINI IMPIANTI SRL||1022.00||2017_00125820506
Z5C1A4B8C7||Manutenzione urgente cabina elettrica||08-AFFIDAMENTO IN ECONOMIA - COTTIMO FIDUCIARIO||02199370509||PIERINI IMPIANTI SRL||560.00||2017_00125820506
Z3A1CB4BB8||Lavori manutenzione elettrica seguito verifiche USL Immobile||08-AFFIDAMENTO IN ECONOMIA - COTTIMO FIDUCIARIO||02199370509||PIERINI IMPIANTI SRL||465.00||2017_00125820506
