Z3D1B42598||Accordo di co-marketing per la promozione di servizi  tra Innova Camera e Pluservice||23-AFFIDAMENTO IN ECONOMIA - AFFIDAMENTO DIRETTO||01140590421||PLUSERVICE SRL||15000.00||2017_10203811004
Z3D1B42598||Accordo di co-marketing per la promozione di servizi  tra Innova Camera e Pluservice||23-AFFIDAMENTO IN ECONOMIA - AFFIDAMENTO DIRETTO||01140590421||PLUSERVICE SRL||15000.00||2017_10203811004
ZE518B6C73||SERVIZI implementazione licenze per accesso procedure Giove compreso trasferimento dati Gestionale Giove da FTV a SVT||23-AFFIDAMENTO IN ECONOMIA - AFFIDAMENTO DIRETTO||01140590421||Pluservice  srl||7700.00||2017_00153280243
Z23104DB5B||FORNITURE: Fornitura Stampanti smart card con codificatore||23-AFFIDAMENTO IN ECONOMIA - AFFIDAMENTO DIRETTO||01140590421||Pluservice srl||7860.00||2017_00153280243
6239080BAE||SERVIZIO Contratto di Manutenzione Software aziendali. Affidamento alla ditta Pluservice srl per il periodo 01/05/2015   30/04/2017.||06-PROCEDURA NEGOZIATA SENZA PREVIA INDIZIONE DI  GARA ART. 221 D.LGS. 163/2006||01140590421||Pluservice srl||150400.00||2017_00153280243
Z8114827FF||SERVIZIO Modifica al sistema gestionale Pluservice per consentire l'utilizzo condiviso dei palmari di FTV||23-AFFIDAMENTO IN ECONOMIA - AFFIDAMENTO DIRETTO||01140590421||Pluservice srl||15100.00||2017_00153280243
Z8614E9C74||SERVIZI Fornitura e installazione nuova Piattaforma di contabilità GIOVE||23-AFFIDAMENTO IN ECONOMIA - AFFIDAMENTO DIRETTO||01140590421||Pluservice S.r.l.||10000.00||2017_00153280243
Z0A1713FBA||SERVIZIO Contratto manutenzione  computer di bordo modello FLH BOX2  periodo 01/11/2015-30/04/2017||23-AFFIDAMENTO IN ECONOMIA - AFFIDAMENTO DIRETTO||01140590421||Pluservice srl||16650.00||2017_00153280243
Z9A17320BB||SERVIZIO Riparazione nr. 11 computer di bordo modello FLH BOX2||23-AFFIDAMENTO IN ECONOMIA - AFFIDAMENTO DIRETTO||01140590421||Pluservice srl||5550.00||2017_00153280243
ZA51BF1569||ATTIVITA' PER FUSIONE APS OPERE E APS FINANZIARIA IN APS HOLDING SU OCEANO E TELEMACO||23-AFFIDAMENTO IN ECONOMIA - AFFIDAMENTO DIRETTO||01140590421||PLUSERVICE SRL||8500.00||2017_03860240286
Z251A16C7A||MIGRAZIONE DATI E FORNITURA SISTEMA INFORMATIVO GIOVE E TELEMACO||08-AFFIDAMENTO IN ECONOMIA - COTTIMO FIDUCIARIO||01140590421||PLUSERVICE SRL||37190.00||2017_03860240286
ZA81A53C0E||acquisto licenze SW Telemaco||14-PROCEDURA SELETTIVA EX ART 238 C.7, D.LGS. 163/2006||01140590421||PLUSERVICE srl||1500.00||2017_03644010237
Z881974672||Telemaco: introduzione nuovo campo mensilità||14-PROCEDURA SELETTIVA EX ART 238 C.7, D.LGS. 163/2006||01140590421||PLUSERVICE srl||1250.00||2017_03644010237
Z97132EB58||CANONE MANUTENZIONE E AGGIORNAMENTO SW TELEMACO - 2015-2016||14-PROCEDURA SELETTIVA EX ART 238 C.7, D.LGS. 163/2006||01140590421||PLUSERVICE srl||36000.00||2017_03644010237
Z810EFF8B4||SERVIZIO DI MANUTENZIONE POS VERIFONE NURIT 8400 dal 01.06.2014 al 31.05.2016||14-PROCEDURA SELETTIVA EX ART 238 C.7, D.LGS. 163/2006||01140590421||PLUSERVICE srl||22000.00||2017_03644010237
Z371C4A0E5||Estrazione dati da Procedura Telemaco||14-PROCEDURA SELETTIVA EX ART 238 C.7, D.LGS. 163/2006||01140590421||PLUSERVICE srl||2700.00||2017_03644010237
50608433C2||SERVIZI: contratto di manutenzione software aziendali||06-PROCEDURA NEGOZIATA SENZA PREVIA INDIZIONE DI  GARA ART. 221 D.LGS. 163/2006||01140590421||PLUSERVICE SRL||149600.00||2016_00153280243
Z23104DB5B||FORNITURE: Fornitura Stampanti smart card con codificatore||23-AFFIDAMENTO IN ECONOMIA - AFFIDAMENTO DIRETTO||01140590421||Pluservice srl||7860.00||2016_00153280243
ZC41063F85||FORNITURE: Fornitura di n. 8 terminali palmari con software, licenze, configurazione, formazione, manutenzione||23-AFFIDAMENTO IN ECONOMIA - AFFIDAMENTO DIRETTO||01140590421||Pluservice srl||27800.00||2016_00153280243
Z1D13FA1F9||SERVIZIO Attivazione funzionalità Importazione file esterni procedura Verificatori||23-AFFIDAMENTO IN ECONOMIA - AFFIDAMENTO DIRETTO||01140590421||Pluservice srl||2850.00||2016_00153280243
6239080BAE||SERVIZIO Contratto di Manutenzione Software aziendali. Affidamento alla ditta Pluservice srl per il periodo 01/05/2015   30/04/2017.||06-PROCEDURA NEGOZIATA SENZA PREVIA INDIZIONE DI  GARA ART. 221 D.LGS. 163/2006||01140590421||Pluservice srl||150400.00||2016_00153280243
Z8114827FF||SERVIZIO Modifica al sistema gestionale Pluservice per consentire l'utilizzo condiviso dei palmari di FTV||23-AFFIDAMENTO IN ECONOMIA - AFFIDAMENTO DIRETTO||01140590421||Pluservice srl||15100.00||2016_00153280243
Z8614E9C74||SERVIZI Fornitura e installazione nuova Piattaforma di contabilità GIOVE||23-AFFIDAMENTO IN ECONOMIA - AFFIDAMENTO DIRETTO||01140590421||Pluservice S.r.l.||10000.00||2016_00153280243
Z0A1713FBA||SERVIZIO Contratto manutenzione  computer di bordo modello FLH BOX2  periodo 01/11/2015-30/04/2017||23-AFFIDAMENTO IN ECONOMIA - AFFIDAMENTO DIRETTO||01140590421||Pluservice srl||16650.00||2016_00153280243
Z9A17320BB||SERVIZIO Riparazione nr. 11 computer di bordo modello FLH BOX2||23-AFFIDAMENTO IN ECONOMIA - AFFIDAMENTO DIRETTO||01140590421||Pluservice srl||5550.00||2016_00153280243
Z5D1BE07FC||Contributo a Pluservice per sviluppo applicazione Mycicero per convenzione Università||23-AFFIDAMENTO IN ECONOMIA - AFFIDAMENTO DIRETTO||01140590421||PLUSERVICE SRL||750.00||2017_02150990428
Z0A1CB4991||FORNITURA MATERIALE PROMOZIONE E COUPON VALORE SOSTA CESENATICO||23-AFFIDAMENTO IN ECONOMIA - AFFIDAMENTO DIRETTO||01140590421||PLUSERVICE SRL||4098.37||2017_00358700391
Z7A1A3F5E8||SERVIZIO PRENOTAZIONE PAGAMENTO BUS TURISTICI TRAMITE MY CICERO||23-AFFIDAMENTO IN ECONOMIA - AFFIDAMENTO DIRETTO||01140590421||PLUSERVICE S.R.L.||11574.00||2017_81001510551
0000000000||Software parcometro||17-AFFIDAMENTO DIRETTO EX ART. 5 DELLA LEGGE N.381/91||01140590421||PLUSERVICE SRL||40.00||2017_01671350682
0000000000||Software parcometro||23-AFFIDAMENTO IN ECONOMIA - AFFIDAMENTO DIRETTO||01140590421||PLUSERVICE SRL||20.00||2017_01671350682
0000000000||Software parcometro||23-AFFIDAMENTO IN ECONOMIA - AFFIDAMENTO DIRETTO||01140590421||PLUSERVICE SRL||20.00||2017_01671350682
0000000000||Software parcometro||23-AFFIDAMENTO IN ECONOMIA - AFFIDAMENTO DIRETTO||01140590421||PLUSERVICE SRL||20.00||2017_01671350682
Z2F14332BD||n.25 penne digitali per lettura ottica multe con attivazione e canone annuo utilizzo in modalita asp.||23-AFFIDAMENTO IN ECONOMIA - AFFIDAMENTO DIRETTO||01140590421||PluService Srl||10675.00||2017_01816540510
X26113CFEA||SOFTEWEARE GESTIONALE GIOVE E SERVIZI DI START UP||23-AFFIDAMENTO IN ECONOMIA - AFFIDAMENTO DIRETTO||01140590421||PLUSERVICE SRL||11000.00||2016_00112550744
X6011DC70A||"FORMAZIONE E AFFIANCAMENTO  START UP SW GIOVE; MIGRAZIONE PROCEDURE PLUSERVICE SU NUOVO SERVER"||23-AFFIDAMENTO IN ECONOMIA - AFFIDAMENTO DIRETTO||01140590421||PLUSERVICE SRL||4350.00||2016_00112550744
X7611DC716||"ANALISI E REDAZIONE PROGETTO ESECUTIVO; PERSONALIZZAZIONE SOFTWARE FLUSSO RICHIESTE ACQUISTO; SERVIZIO CANONE SOFTWARE."||23-AFFIDAMENTO IN ECONOMIA - AFFIDAMENTO DIRETTO||01140590421||PLUSERVICE SRL||10100.00||2016_00112550744
XDB12D3B0C||SERVIZIO DI COMPILAZIONE ED INVIO ELETTRONICO DELLE FATTURE VERSO LA PUBBLICA AMMINISTRAZIONE E SERVIZIO DI ARCHIVIAZIONE SOSTITUTIVA||23-AFFIDAMENTO IN ECONOMIA - AFFIDAMENTO DIRETTO||01140590421||PLUSERVICE SRL||1200.00||2016_00112550744
X98170971F||CONSULENZA E FORMAZIONE SOFTWARE GIOVE - FLUSSO AUTOMATIZZATO ACQUISTI E REDAZIONE NUOVO PIANO DEI CONTI 2016||06-PROCEDURA NEGOZIATA SENZA PREVIA INDIZIONE DI  GARA ART. 221 D.LGS. 163/2006||01140590421||PLUSERVICE SRL||1000.00||2016_00112550744
XAE170972B|| MANUTENZIONE SOFTWARE PLUSERVICE TELEMACO, PERSONALIZZAZIONE MODULO PER GESTIONE RATEI/RISCONTI E CONSULENZA||06-PROCEDURA NEGOZIATA SENZA PREVIA INDIZIONE DI  GARA ART. 221 D.LGS. 163/2006||01140590421||PLUSERVICE SRL||3650.00||2016_00112550744
ZDE0F816DF||Materiale per verificatori||23-AFFIDAMENTO IN ECONOMIA - AFFIDAMENTO DIRETTO||01140590421||PLUSERVICE Srl||1975.00||2015_02046440513
ZDE0F816DF||Materiale per verificatori||23-AFFIDAMENTO IN ECONOMIA - AFFIDAMENTO DIRETTO||01140590421||PLUSERVICE Srl||1975.00||2017_02046440513
Z49131AA4C||Realizzazione ambiente unico TIEMME e TFT. Moduli import/export con EQUITALIA e POSTE||23-AFFIDAMENTO IN ECONOMIA - AFFIDAMENTO DIRETTO||01140590421||PLUSERVICE Srl||20400.00||2017_02046440513
Z701508E7C||Modifiche gestione multe a seguito modifiche legge regionale 42/98, oltre a modifiche verbale pagato||23-AFFIDAMENTO IN ECONOMIA - AFFIDAMENTO DIRETTO||01140590421||PLUSERVICE Srl||13500.00||2017_02046440513
ZDC1772853||Modifiche passaggio dati multe da pgm verificatori a commerciale||23-AFFIDAMENTO IN ECONOMIA - AFFIDAMENTO DIRETTO||01140590421||PLUSERVICE Srl||2500.00||2017_02046440513
ZE119BFCE1||Modifiche PGM Multe per la gestione di indirizzo corretto del multato e controlli prima invio A/R||23-AFFIDAMENTO IN ECONOMIA - AFFIDAMENTO DIRETTO||01140590421||PLUSERVICE Srl||2500.00||2017_02046440513
Z8C149A376||Tipicità 2015. Servizi promozione su MyCicero||23-AFFIDAMENTO IN ECONOMIA - AFFIDAMENTO DIRETTO||01140590421||PLUSERVICE S.R.L.||2000.00||2016_00334990447
Z3E1A311F4||implementazione software servizio giornaliero movimento.||23-AFFIDAMENTO IN ECONOMIA - AFFIDAMENTO DIRETTO||01140590421||PLUSERVICE||2000.00||2017_04874020284
Z1E196C9CA||servizio di supporto ai sistemi operativi aziendali  per l'anno 2016 e fornitura di 5 licenze Utente||23-AFFIDAMENTO IN ECONOMIA - AFFIDAMENTO DIRETTO||01140590421||Pluservice Srl||6100.00||2017_00288240690
Z6E1735595||SISTEMA INFORMATICO PER TURNAZIONE MS||23-AFFIDAMENTO IN ECONOMIA - AFFIDAMENTO DIRETTO||01140590421||Pluservice Srl||13000.00||2017_00288240690
Z6B1A4C991||Fornitura n. 2 stampanti toshiba TEC b-SA4TP||23-AFFIDAMENTO IN ECONOMIA - AFFIDAMENTO DIRETTO||01140590421||Pluservice Srl||1520.00||2017_00288240690
ZF31A97137||Affidamento fornitura supporto operativo in teleassistenza su software per il movimento.||23-AFFIDAMENTO IN ECONOMIA - AFFIDAMENTO DIRETTO||01140590421||Pluservice Srl||2000.00||2017_00288240690
68141720A0||Servizio di manutenzione ed assistenza sistemi applicativi pluservice GSM03-005bis - 2016.||23-AFFIDAMENTO IN ECONOMIA - AFFIDAMENTO DIRETTO||01140590421||Pluservice Srl||79000.00||2017_00288240690
Z361B7DAC3||Fornitura materiale di consumo stampanti per bigliettazione.||23-AFFIDAMENTO IN ECONOMIA - AFFIDAMENTO DIRETTO||01140590421||Pluservice Srl||2000.00||2017_00288240690
6873749D1B||Provvigioni e canoni su titoli venduti applicativi Pluservice||23-AFFIDAMENTO IN ECONOMIA - AFFIDAMENTO DIRETTO||01140590421||Pluservice Srl||130000.00||2017_00288240690
ZF01304165||ORDINE A FORNITORE N. 100040 MS||23-AFFIDAMENTO IN ECONOMIA - AFFIDAMENTO DIRETTO||01140590421||Pluservice Srl||16200.00||2017_00288240690
ZBE1CBDD1C||interfaccia telemaco sap pluservice cv||23-AFFIDAMENTO IN ECONOMIA - AFFIDAMENTO DIRETTO||01140590421||Pluservice Srl||26000.00||2017_00288240690
ZDE0F816DF||Materiale per verificatori||23-AFFIDAMENTO IN ECONOMIA - AFFIDAMENTO DIRETTO||01140590421||PLUSERVICE Srl||1975.00||2016_02046440513
Z49131AA4C||Realizzazione ambiente unico TIEMME e TFT. Moduli import/export con EQUITALIA e POSTE||23-AFFIDAMENTO IN ECONOMIA - AFFIDAMENTO DIRETTO||01140590421||PLUSERVICE Srl||20400.00||2016_02046440513
Z701508E7C||Modifiche gestione multe a seguito modifiche legge regionale 42/98, oltre a modifiche verbale pagato||23-AFFIDAMENTO IN ECONOMIA - AFFIDAMENTO DIRETTO||01140590421||PLUSERVICE Srl||13500.00||2016_02046440513
ZDC1772853||Modifiche passaggio dati multe da pgm verificatori a commerciale||23-AFFIDAMENTO IN ECONOMIA - AFFIDAMENTO DIRETTO||01140590421||PLUSERVICE Srl||2500.00||2016_02046440513
Z991A96F82||AFFIDAMENTO IN ECONOMIA - AFFIDAMENTO DIRETTO||23-AFFIDAMENTO IN ECONOMIA - AFFIDAMENTO DIRETTO||01140590421||PLUSERVICE S.R.L.||6663.02||2017_04498000266
ZB01ADC3C1||AFFIDAMENTO DIRETTO PER L'ACQUISIZONE DI UN SERVIZIO PER IL PAGAMENTO DELLA TARIFFA DI SOSTA MEDIANTE PIATTAFORMA MULTICANALE||23-AFFIDAMENTO IN ECONOMIA - AFFIDAMENTO DIRETTO||01140590421||PLUSERVICE SRL ||10000.00||2017_00560180127
0000000000||spese di rappresentanza ospiti aziendali||23-AFFIDAMENTO IN ECONOMIA - AFFIDAMENTO DIRETTO||01140590421||PLUSERVICE SRL||363.00||2017_00112550744
XAE170972B||MANUTENZIONE SOFTWARE PLUSERVICE TELEMACO, PERSONALIZZAZIONE MODULO PER GESTIONE RATEI/RISCONTI E CONSULENZA||06-PROCEDURA NEGOZIATA SENZA PREVIA INDIZIONE DI  GARA ART. 221 D.LGS. 163/2006||01140590421||PLUSERVICE SRL||3650.00||2017_00112550744
X7F170973F||CANONE ASSISTENZA SOFTWARE GIOVE||06-PROCEDURA NEGOZIATA SENZA PREVIA INDIZIONE DI  GARA ART. 221 D.LGS. 163/2006||01140590421||PLUSERVICE SRL||14912.02||2017_00112550744
XD01999E4A||ANALISI E FORMAZIONE SOFTWARE GIOVE||06-PROCEDURA NEGOZIATA SENZA PREVIA INDIZIONE DI  GARA ART. 221 D.LGS. 163/2006||01140590421||PLUSERVICE SRL||1700.00||2017_00112550744
X8B1999E52||FORMAZIONE UTILIZZO SOFTWARE GIOVE AREA TECNICA||06-PROCEDURA NEGOZIATA SENZA PREVIA INDIZIONE DI  GARA ART. 221 D.LGS. 163/2006||01140590421||PLUSERVICE SRL||1200.00||2017_00112550744
Z761B20130||MATERIALE PUBBLICITARIO APP MYCICERO||23-AFFIDAMENTO IN ECONOMIA - AFFIDAMENTO DIRETTO||01140590421||PLUSERVICE SRL||569.00||2017_00112550744
Z0D1B4D8D4||ATTIVAZIONE APP MYCICERO||23-AFFIDAMENTO IN ECONOMIA - AFFIDAMENTO DIRETTO||01140590421||PLUSERVICE SRL||1500.00||2017_00112550744
ZA6193977A||Servizio di manutenzione software Telemaco, software Officina e software Scuolabus||23-AFFIDAMENTO IN ECONOMIA - AFFIDAMENTO DIRETTO||01140590421||PLUSERVICE S.R.L.||9500.00||2017_01808020356
Z9719FEF68||Fornitura licenza software gestionale sinistri||23-AFFIDAMENTO IN ECONOMIA - AFFIDAMENTO DIRETTO||01140590421||PLUSERVICE S.R.L.||8150.00||2017_01808020356
XC50D1D9FF||canone 2014 Manutenzione SW Pluservice settore tpl||23-AFFIDAMENTO IN ECONOMIA - AFFIDAMENTO DIRETTO||01140590421||PLUSERVICE SRL - SENIGALLIA||3114.02||2016_00457550432
X0812F0FB5||Realizzazione di un software per la rilevazione della presenza del personale in mobilità (Sistema di gestione RPM)||08-AFFIDAMENTO IN ECONOMIA - COTTIMO FIDUCIARIO||01140590421||PLUSERVICE S.R.L.||4900.00||2016_06010490727
50608433C2||SERVIZI: contratto di manutenzione software aziendali||06-PROCEDURA NEGOZIATA SENZA PREVIA INDIZIONE DI  GARA ART. 221 D.LGS. 163/2006||01140590421||PLUSERVICE SRL||149600.00||2015_00153280243
Z3F0D8FEBB||FORNITURE: dispositivi hardware sostituzione disco server||23-AFFIDAMENTO IN ECONOMIA - AFFIDAMENTO DIRETTO||01140590421||PLUSERVICE S.R.L.||490.00||2015_00153280243
ZE10F9545F||SERVIZI: personalizzazione software movimento - procedura duplicazione del servizio||23-AFFIDAMENTO IN ECONOMIA - AFFIDAMENTO DIRETTO||01140590421||Pluservice srl||8350.00||2015_00153280243
Z23104DB5B||FORNITURE: Fornitura Stampanti smart card con codificatore||23-AFFIDAMENTO IN ECONOMIA - AFFIDAMENTO DIRETTO||01140590421||Pluservice srl||7860.00||2015_00153280243
ZC41063F85||FORNITURE: Fornitura di n. 8 terminali palmari con software, licenze, configurazione, formazione, manutenzione||23-AFFIDAMENTO IN ECONOMIA - AFFIDAMENTO DIRETTO||01140590421||Pluservice srl||27800.00||2015_00153280243
Z1910F31E3||FORNITURE: Fornitura dispositivi hardware per riparazione guasto||23-AFFIDAMENTO IN ECONOMIA - AFFIDAMENTO DIRETTO||01140590421||Pluservice srl||3110.00||2015_00153280243
Z8C0AA4432||Canone di manutenzione procedura Segreteria protocollo - rivalutazione ISTat||23-AFFIDAMENTO IN ECONOMIA - AFFIDAMENTO DIRETTO||01140590421||PLUSERVICE S.R.L.||19.31||2016_00211210117
ZCD0ACF06F||Rinnovo assistenza software procedura protocollo segreteria 2Â° semestre anno 2013||23-AFFIDAMENTO IN ECONOMIA - AFFIDAMENTO DIRETTO||01140590421||PLUSERVICE S.R.L.||823.79||2016_00211210117
Z310D583A2||Rinnovo assistenza software procedura protocollo segreteria anno 2014||23-AFFIDAMENTO IN ECONOMIA - AFFIDAMENTO DIRETTO||01140590421||PLUSERVICE S.R.L.||1647.58||2016_00211210117
X5A17DDE5D||SOFTWARE GESTIONALE MOVIMENTO||01-PROCEDURA APERTA||01140590421||PLUSERVICE SRL||10000.00||2017_01502970666
4382506E58||Integrazione contratto  appalto integrato per la progettazione di un sistema AVM||23-AFFIDAMENTO IN ECONOMIA - AFFIDAMENTO DIRETTO||01140590421||PLUSERVICE S.R.L.||      129215.32||2017_82004950901
Z821BA5ED3||Riparazione apparato elettronico||23-AFFIDAMENTO IN ECONOMIA - AFFIDAMENTO DIRETTO||01140590421||PLUSERVICE S.R.L.||         544.00||2017_82004950901
Z4B1CBC3FF||Corso di formazione software telematico - ORD/RAM 1061||23-AFFIDAMENTO IN ECONOMIA - AFFIDAMENTO DIRETTO||01140590421||PLUSERVICE S.R.L.||         701.34||2017_82004950901
ZF81AB1D11||GLOBAL SERVICE MANAGEMENT - contratto di assistenza e manutenzione software contabilità ||23-AFFIDAMENTO IN ECONOMIA - AFFIDAMENTO DIRETTO||01140590421||PLUSERVICE SRL ||6500.00||2017_02157030400
Z5018A90DD||Manutenzione ordinaria GSM01-003-2011||23-AFFIDAMENTO IN ECONOMIA - AFFIDAMENTO DIRETTO||01140590421||Pluservice S.r.l.||9567.96||2017_01090950443
Z541BAB960||FORNITURA E INSTALLAZIONE MICROSOFT SQL SERVER||23-AFFIDAMENTO IN ECONOMIA - AFFIDAMENTO DIRETTO||01140590421||PLUSERVICE SRL||2400.00||2017_00313590374
Z6A1B25632||PROGETTO SOFTWARE||23-AFFIDAMENTO IN ECONOMIA - AFFIDAMENTO DIRETTO||01140590421||PLUSERVICE SRL||6600.00||2017_00313590374
Z631C0E217||FORNITURA FIREWALL||23-AFFIDAMENTO IN ECONOMIA - AFFIDAMENTO DIRETTO||01140590421||PLUSERVICE SRL||220.00||2017_00313590374
ZD51CAB64E||FORNITURA SCHEDA CENTRALINO||23-AFFIDAMENTO IN ECONOMIA - AFFIDAMENTO DIRETTO||01140590421||PLUSERVICE SRL||1160.00||2017_00313590374
Z0919C80DF||Fornitura nr. 10 Dispositivi Computer di Bordo tipo FLHBox2||23-AFFIDAMENTO IN ECONOMIA - AFFIDAMENTO DIRETTO||01140590421||Pluservice S.r.l.||15430.00||2017_03419220243
ZAD193BF9A||Nr. 5 giornate corso addestramento gestionale Giove||23-AFFIDAMENTO IN ECONOMIA - AFFIDAMENTO DIRETTO||01140590421||Pluservice S.r.l.||4150.00||2017_03419220243
Z131B08298||Servizio di conferimento dati magazzino Aim in ambiente Giove di SVT||23-AFFIDAMENTO IN ECONOMIA - AFFIDAMENTO DIRETTO||01140590421||Pluservice S.r.l.||2250.00||2017_03419220243
Z8C1C16C9A||Nr. 5 giornate di addestramento su programma gestionale Giove||23-AFFIDAMENTO IN ECONOMIA - AFFIDAMENTO DIRETTO||01140590421||Pluservice S.r.l.||2500.00||2017_03419220243
6239080BAE||SERVIZIO Contratto di Manutenzione Software aziendali. Affidamento alla ditta Pluservice srl per il periodo 01/05/2015   30/04/2017.||06-PROCEDURA NEGOZIATA SENZA PREVIA INDIZIONE DI  GARA ART. 221 D.LGS. 163/2006||01140590421||Pluservice srl||150400.00||2017_03419220243
ZC70F46D3A||SERVIZIO MANUTENZIONE STRAORDINARIA SOFTWARE DISTRIBUZIONE E VERIFICA BIGLIETTAZIONE||23-AFFIDAMENTO IN ECONOMIA - AFFIDAMENTO DIRETTO||01140590421||PLUSERVICE S.R.L.||36600.00||2016_00292210630
Z2F14332BD||n.25 penne digitali per lettura ottica multe con attivazione e canone annuo utilizzo in modalita asp.||23-AFFIDAMENTO IN ECONOMIA - AFFIDAMENTO DIRETTO||01140590421||PluService Srl||10675.00||2016_01816540510
XDF19440C6||ASSISTENZA 2016||23-AFFIDAMENTO IN ECONOMIA - AFFIDAMENTO DIRETTO||01140590421||PLUSERVICE SRL||14000.00||2017_01482560412
ZDF1553C24||CANONE MANUTENZIONE PROGRAMMA PAGHE ANNO 2015
||23-AFFIDAMENTO IN ECONOMIA - AFFIDAMENTO DIRETTO||01140590421||PLUSERVICE srl||5756.08||2016_01474680418
Z12181AC2C||canone annuale manutenziione software di officina||23-AFFIDAMENTO IN ECONOMIA - AFFIDAMENTO DIRETTO||01140590421||PLUSERVICE S.R.L.||3600.00||2017_02115960995
Z5A1B348F6||PAGAMENTO PERCENTUALE PARCHEGGIO &quot; THE FLOATING PIERS&quot;||08-AFFIDAMENTO IN ECONOMIA - COTTIMO FIDUCIARIO||01140590421||PLUSERVICE SRL||244.80||2017_00377510177
Z4C154DCA2||ordine tessere contactless Mifare 1k NXP||14-PROCEDURA SELETTIVA EX ART 238 C.7, D.LGS. 163/2006||01140590421||PLUSERVICE srl||29500.00||2016_03644010237
Z4C14B448F||servizio supporto S.O. e HW di base||14-PROCEDURA SELETTIVA EX ART 238 C.7, D.LGS. 163/2006||01140590421||PLUSERVICE srl||10000.00||2016_03644010237
Z97132EB58||CANONE MANUTENZIONE E AGGIORNAMENTO SW TELEMACO - 2015-2016||14-PROCEDURA SELETTIVA EX ART 238 C.7, D.LGS. 163/2006||01140590421||PLUSERVICE srl||36000.00||2016_03644010237
Z1112AD7B2||integrazione Telemaco con emettitrici RTVM AEP||14-PROCEDURA SELETTIVA EX ART 238 C.7, D.LGS. 163/2006||01140590421||PLUSERVICE srl||7500.00||2016_03644010237
ZB810DFDBC||acquisto nuove stampanti tessere e implementazione SW Telemaco||14-PROCEDURA SELETTIVA EX ART 238 C.7, D.LGS. 163/2006||01140590421||PLUSERVICE srl||2938.00||2016_03644010237
Z99108D583||acquisto lettore contactless compatibile con SW Telemaco e SO Windows 8||14-PROCEDURA SELETTIVA EX ART 238 C.7, D.LGS. 163/2006||01140590421||PLUSERVICE srl||250.00||2016_03644010237
ZC2108A8AD||ordine tessere contactless Mifare 1k NXP||14-PROCEDURA SELETTIVA EX ART 238 C.7, D.LGS. 163/2006||01140590421||PLUSERVICE srl||18900.00||2016_03644010237
Z0E105EC26||aggiornamento sistemi per funzionamento su SO Windows 8.1||14-PROCEDURA SELETTIVA EX ART 238 C.7, D.LGS. 163/2006||01140590421||PLUSERVICE srl||3000.00||2016_03644010237
Z810EFF8B4||SERVIZIO DI MANUTENZIONE POS VERIFONE NURIT 8400 dal 01.06.2014 al 31.05.2016||14-PROCEDURA SELETTIVA EX ART 238 C.7, D.LGS. 163/2006||01140590421||PLUSERVICE srl||22000.00||2016_03644010237
Z1508395BE||canone manutenzione SW Telemaco dal 01.01.2013 al 31.12.2014||23-AFFIDAMENTO IN ECONOMIA - AFFIDAMENTO DIRETTO||01140590421||PLUSERVICE srl||36000.00||2016_03644010237
6099286A06||CANONI DI MANUTENZIONE E ASSISTENZA TELEFONICA AI SW PLUSERVICE INSTALLATI C/O APS HOLDING||23-AFFIDAMENTO IN ECONOMIA - AFFIDAMENTO DIRETTO||01140590421||PLUSERVICE SRL||47800.00||2016_03860240286
Z851352FD5||SERVIZIO DI MANUTENZIONE E ASSISTENZA SOFWARE PLUSERVICE INSTALLATI C/O NS SEDI AZIENDALI||23-AFFIDAMENTO IN ECONOMIA - AFFIDAMENTO DIRETTO||01140590421||PLUSERVICE SRL||1250.00||2016_03860240286
Z8114443D7||EXPORT DATI DA TELEMACO A SAP||23-AFFIDAMENTO IN ECONOMIA - AFFIDAMENTO DIRETTO||01140590421||PLUSERVICE SRL||1800.00||2016_03860240286
Z3517BF6E7||AGGIORNAMENTO SW OCEANO PER CESPITI||23-AFFIDAMENTO IN ECONOMIA - AFFIDAMENTO DIRETTO||01140590421||PLUSERVICE SRL||1500.00||2016_03860240286
630094584C||ATTIVITÀ DI FUSIONE DELLA PROCEDURA MOVIMENTO PLUSERVICE TRA LE AZIENDE BUSITALIA VENETO E APS HOLDING||23-AFFIDAMENTO IN ECONOMIA - AFFIDAMENTO DIRETTO||01140590421||PLUSERVICE S.R.L.||43160.00||2016_04874020284
63428182FF||PROGETTO DI UNIFICAZIONE DELLE PROCEDURE INFORMATICHE DI BIGLIETTAZIONE PLUSERVICE GESTITE DA BUSITALIA VENETO E APS HOLDING||23-AFFIDAMENTO IN ECONOMIA - AFFIDAMENTO DIRETTO||01140590421||PLUSERVICE S.R.L.||53950.00||2016_04874020284
6533440D3C||ATTIVITÀ DI PERSONALIZZAZIONE, NUOVA PARAMETRIZZAZIONE E ADATTAMENTO DEI COMPONENTI SOFTWARE DEL SISTEMA DI BIGLIETTAZIONE ELETTRONICA ATTUALE DI BUSITALIA VENETO||23-AFFIDAMENTO IN ECONOMIA - AFFIDAMENTO DIRETTO||01140590421||PLUSERVICE S.R.L.||380000.00||2016_04874020284
Z19173B454||SUPPORTO SISTEMISTICO PER BACKUP SERVER||23-AFFIDAMENTO IN ECONOMIA - AFFIDAMENTO DIRETTO||01140590421||PLUSERVICE  SRL||60.00||2016_04874020284
XBC18891BC||Servizio di Trasporto a Chiamata del Comune di Narni -  affidamento servizio di manutenzione e assistenza all'Azienda fornitrice Pluservice S.r.l.- CIG: XBC18891BC.||23-AFFIDAMENTO IN ECONOMIA - AFFIDAMENTO DIRETTO||01140590421||PLUSERVICE S.R.L.||3500.00||2017_00178930558
X48156484A||Servizio di Trasporto a Chiamata del Comune di Narni realizzato con finanziamento GAL Ternano - Azienda Pluservice S.r.l.. - affidamento intervento di riparazione - CIG: X48156484A||23-AFFIDAMENTO IN ECONOMIA - AFFIDAMENTO DIRETTO||01140590421||PLUSERVICE S.R.L.||13.00||2017_00178930558
Z71198C097||CANONE ASSISTENZA PROGRAMMA  PAGHE ANNO 2016||23-AFFIDAMENTO IN ECONOMIA - AFFIDAMENTO DIRETTO||01140590421||PLUSERVICE srl||6230.75||2017_01474680418
Z8C0AA4432||Canone di manutenzione procedura Segreteria protocollo - rivalutazione ISTat||23-AFFIDAMENTO IN ECONOMIA - AFFIDAMENTO DIRETTO||01140590421||PLUSERVICE S.R.L.||19.31||2017_00211210117
ZCD0ACF06F||Rinnovo assistenza software procedura protocollo segreteria 2Â° semestre anno 2013||23-AFFIDAMENTO IN ECONOMIA - AFFIDAMENTO DIRETTO||01140590421||PLUSERVICE S.R.L.||823.79||2017_00211210117
Z310D583A2||Rinnovo assistenza software procedura protocollo segreteria anno 2014||23-AFFIDAMENTO IN ECONOMIA - AFFIDAMENTO DIRETTO||01140590421||PLUSERVICE S.R.L.||1647.58||2017_00211210117
Z2A0DA08A9||Canone manutenzione procedura officina e magazzino/cp 2014 e rivalutazione ISTAT 2013||23-AFFIDAMENTO IN ECONOMIA - AFFIDAMENTO DIRETTO||01140590421||PLUSERVICE S.R.L.||5374.39||2016_01222260117
Z610E7B412||Asistenza software||23-AFFIDAMENTO IN ECONOMIA - AFFIDAMENTO DIRETTO||01140590421||PLUSERVICE S.R.L.||60.00||2016_01222260117
Z07104F139||Canone di manutenzione procedura officina e cp/mag||23-AFFIDAMENTO IN ECONOMIA - AFFIDAMENTO DIRETTO||01140590421||PLUSERVICE S.R.L.||5406.18||2016_01222260117
Z861305BBB||Canone manutenzione Officina e CP/MAG||23-AFFIDAMENTO IN ECONOMIA - AFFIDAMENTO DIRETTO||01140590421||PLUSERVICE S.R.L.||5406.19||2016_01222260117
ZA5132523E||Fornitura etichette adesive stampante magazzino||23-AFFIDAMENTO IN ECONOMIA - AFFIDAMENTO DIRETTO||01140590421||PLUSERVICE S.R.L.||105.00||2016_01222260117
Z4C13FCB13||Riparazione stampante a barre magazzino||23-AFFIDAMENTO IN ECONOMIA - AFFIDAMENTO DIRETTO||01140590421||PLUSERVICE S.R.L.||150.00||2016_01222260117
ZEB14C2CA5||Canone di manutenzione procedura Segreteria protocollo||23-AFFIDAMENTO IN ECONOMIA - AFFIDAMENTO DIRETTO||01140590421||PLUSERVICE S.R.L.||828.74||2016_01222260117
Z8815BB632||Manutenzione procedura CP/MAG - OFFICINA||23-AFFIDAMENTO IN ECONOMIA - AFFIDAMENTO DIRETTO||01140590421||PLUSERVICE S.R.L.||5406.19||2016_01222260117
Z3A15BB5C3||Canone manutenzione procedura protocollo||23-AFFIDAMENTO IN ECONOMIA - AFFIDAMENTO DIRETTO||01140590421||PLUSERVICE S.R.L.||828.73||2016_01222260117
Z511CD2E6D||FORNITURA APP SOFTWARE PER LA VERIFICA DEI TITOLI DI VIAGGIO||23-AFFIDAMENTO IN ECONOMIA - AFFIDAMENTO DIRETTO||01140590421||PLUSERVICE S.R.L. ||500.00||2017_03000970164
ZA71C853D2||Pacchetto giornate di consulenza per bigliettazione elettronica e AVL  ||23-AFFIDAMENTO IN ECONOMIA - AFFIDAMENTO DIRETTO||01140590421||PLUSERVICE S.R.L. ||5000.00||2017_03000970164
ZA61BE0130||MODIFICA DELLE FATTURE GENERATE IN TELEMACO PER BIGLIETTAZIONE ELETTRONICA ||23-AFFIDAMENTO IN ECONOMIA - AFFIDAMENTO DIRETTO||01140590421||PLUSERVICE S.R.L. ||1000.00||2017_03000970164
ZDA1A7F4EB||GESTIONE E PERSONALIZZAZIONE FATTURE EMESSE DA TELEMACO - NUOVO SISTEMA DI BIGLIETTAZIONE ELETTRONICA||23-AFFIDAMENTO IN ECONOMIA - AFFIDAMENTO DIRETTO||01140590421||PLUSERVICE S.R.L. ||4400.00||2017_03000970164
ZF01A48E4F||fornitura n. 04 APP controlleria NLI e Licenza, da installare su terminali propri e relativi canoni di manutenzione annuali||23-AFFIDAMENTO IN ECONOMIA - AFFIDAMENTO DIRETTO||01140590421||PLUSERVICE S.R.L. ||1800.00||2017_03000970164
ZBD193231E||EROGAZIONE SERVIZIO ASSISTENZA DA REMOTO APPLICATIVO SOFTWARE PLUSERVICE 18+19+25+26/06 02+03/07||23-AFFIDAMENTO IN ECONOMIA - AFFIDAMENTO DIRETTO||01140590421||PLUSERVICE S.R.L. ||1500.00||2017_03000970164
Z59192A90F||CREAZIONE PORTALE PRENOTAZIONE DEL PARCHEGGIO EVENTO FLOATING PIERS||23-AFFIDAMENTO IN ECONOMIA - AFFIDAMENTO DIRETTO||01140590421||PLUSERVICE S.R.L. ||2650.00||2017_03000970164
Z4E192A909||HARDWARE N. 1 LETTORE N. 1 WEBCAM PER STAMPANTE BIGLIETTAZIONE ELETTRONICA||23-AFFIDAMENTO IN ECONOMIA - AFFIDAMENTO DIRETTO||01140590421||PLUSERVICE S.R.L. ||123.00||2017_03000970164
6404381663||Fornitura, installazione, avvio operativo, collaudo e manutenzione in garanzia di un sistema di bigliettazione elettronica per il pagamento dei servizi di mobilità e TPL Navigazione Lago d&apos;Iseo.||04-PROCEDURA NEGOZIATA SENZA PREVIA PUBBLICAZIONE DEL BANDO||01140590421||PLUSERVICE S.R.L. ||185699.00||2017_03000970164
Z0C17D1AD1||SERVIZI AGGIUNTIVI VARI SISTEMA DI BIGLIETTAZIONE ELETTRONICA (AVVIAMENTO MOVIMEMENTO ECC)||23-AFFIDAMENTO IN ECONOMIA - AFFIDAMENTO DIRETTO||01140590421||PLUSERVICE S.R.L. ||39900.00||2017_03000970164
XC3130569A||ASSISTENZA SOFTWARE 2015||23-AFFIDAMENTO IN ECONOMIA - AFFIDAMENTO DIRETTO||01140590421||PLUSERVICE SRL||14000.00||2016_01482560412
XBD1689A08||SOFTWARE||23-AFFIDAMENTO IN ECONOMIA - AFFIDAMENTO DIRETTO||01140590421||PLUSERVICE SRL||10995.00||2016_01482560412
Z2A0DA08A9||Canone manutenzione procedura officina e magazzino/cp 2014 e rivalutazione ISTAT 2013||23-AFFIDAMENTO IN ECONOMIA - AFFIDAMENTO DIRETTO||01140590421||PLUSERVICE S.R.L.||5374.39||2017_01222260117
Z610E7B412||Asistenza software||23-AFFIDAMENTO IN ECONOMIA - AFFIDAMENTO DIRETTO||01140590421||PLUSERVICE S.R.L.||60.00||2017_01222260117
Z07104F139||Canone di manutenzione procedura officina e cp/mag||23-AFFIDAMENTO IN ECONOMIA - AFFIDAMENTO DIRETTO||01140590421||PLUSERVICE S.R.L.||5406.18||2017_01222260117
Z861305BBB||Canone manutenzione Officina e CP/MAG||23-AFFIDAMENTO IN ECONOMIA - AFFIDAMENTO DIRETTO||01140590421||PLUSERVICE S.R.L.||5406.19||2017_01222260117
ZA5132523E||Fornitura etichette adesive stampante magazzino||23-AFFIDAMENTO IN ECONOMIA - AFFIDAMENTO DIRETTO||01140590421||PLUSERVICE S.R.L.||105.00||2017_01222260117
Z4C13FCB13||Riparazione stampante a barre magazzino||23-AFFIDAMENTO IN ECONOMIA - AFFIDAMENTO DIRETTO||01140590421||PLUSERVICE S.R.L.||150.00||2017_01222260117
ZEB14C2CA5||Canone di manutenzione procedura Segreteria protocollo||23-AFFIDAMENTO IN ECONOMIA - AFFIDAMENTO DIRETTO||01140590421||PLUSERVICE S.R.L.||828.74||2017_01222260117
Z8815BB632||Manutenzione procedura CP/MAG - OFFICINA||23-AFFIDAMENTO IN ECONOMIA - AFFIDAMENTO DIRETTO||01140590421||PLUSERVICE S.R.L.||5406.19||2017_01222260117
Z3A15BB5C3||Canone manutenzione procedura protocollo||23-AFFIDAMENTO IN ECONOMIA - AFFIDAMENTO DIRETTO||01140590421||PLUSERVICE S.R.L.||828.73||2017_01222260117
ZD51939475||Canone manutenzione Officina e CP/MAG - 1Â° SEMESTRE||23-AFFIDAMENTO IN ECONOMIA - AFFIDAMENTO DIRETTO||01140590421||PLUSERVICE S.R.L.||6234.93||2017_01222260117
Z3E196D656||Fornitura materiale hardware magazzino||23-AFFIDAMENTO IN ECONOMIA - AFFIDAMENTO DIRETTO||01140590421||PLUSERVICE S.R.L.||377.00||2017_01222260117
Z271979340||Passaggio a procedura GIOVE - Software, istallazione, assistenza||23-AFFIDAMENTO IN ECONOMIA - AFFIDAMENTO DIRETTO||01140590421||PLUSERVICE S.R.L.||23770.00||2017_01222260117
ZCC1BBE94F||Canone manutenzione Officina e CP/MAG - 2Â° SEMESTRE||23-AFFIDAMENTO IN ECONOMIA - AFFIDAMENTO DIRETTO||01140590421||PLUSERVICE S.R.L.||5406.19||2017_01222260117
Z491BBE851||Canone di manutenzioneprocedura Pluservice Segreteria 2 Â° semestre||23-AFFIDAMENTO IN ECONOMIA - AFFIDAMENTO DIRETTO||01140590421||PLUSERVICE S.R.L.||828.73||2017_01222260117
X8305098FF||CONSULENZE SOFTWARE||23-AFFIDAMENTO IN ECONOMIA - AFFIDAMENTO DIRETTO||01140590421||PLUSERVICE SRL||            4431.39||2015_01142420056
X8305098FF||CONSULENZE SOFTWARE||23-AFFIDAMENTO IN ECONOMIA - AFFIDAMENTO DIRETTO||01140590421||PLUSERVICE SRL||            4431.39||2015_01142420056
X8305098FF||CONSULENZE SOFTWARE||23-AFFIDAMENTO IN ECONOMIA - AFFIDAMENTO DIRETTO||01140590421||PLUSERVICE SRL||            4457.97||2015_01142420056
X8305098FF||CONSULENZE SOFTWARE||23-AFFIDAMENTO IN ECONOMIA - AFFIDAMENTO DIRETTO||01140590421||PLUSERVICE SRL||              53.18||2015_01142420056
