Z370B21012||CONSULENZA INFORMATICA||23-AFFIDAMENTO IN ECONOMIA - AFFIDAMENTO DIRETTO||02811700232||TELEMACO||509.41||2017_02122930205
Z85093DF78||INSTALLAZIONE ZYXEL FIREWALL||23-AFFIDAMENTO IN ECONOMIA - AFFIDAMENTO DIRETTO||02811700232||TELEMACO||683.65||2017_02122930205
Z370EA5EEC||SERVER||23-AFFIDAMENTO IN ECONOMIA - AFFIDAMENTO DIRETTO||02811700232||TELEMACO||4100.00||2017_02122930205
Z780E5002D||CONSULENZA SISTEMISTICA||23-AFFIDAMENTO IN ECONOMIA - AFFIDAMENTO DIRETTO||02811700232||TELEMACO||259.00||2017_02122930205
ZE611A9917||consulenza sistemistica||23-AFFIDAMENTO IN ECONOMIA - AFFIDAMENTO DIRETTO||02811700232||telemaco srl||630.00||2017_02122930205
ZF011A98D8||fornitura firewall||23-AFFIDAMENTO IN ECONOMIA - AFFIDAMENTO DIRETTO||02811700232||telemaco srl||550.00||2017_02122930205
Z73140201A||n. 22 licenze per la connessione al server||23-AFFIDAMENTO IN ECONOMIA - AFFIDAMENTO DIRETTO||02811700232||telemaco srl||677.60||2017_02122930205
ZF01C6B621||INTERVENTO SISTEMISTICO PER IL RIPRISTINO DEI SERVER A SEGUITO DI INFEZIONE DEI SISTEMI OPERATIVI.||23-AFFIDAMENTO IN ECONOMIA - AFFIDAMENTO DIRETTO||02811700232||TELEMACO SRL||2576.00||2017_02122930205
