Z3D1B42598||Accordo di co-marketing per la promozione di servizi  tra Innova Camera e Pluservice||23-AFFIDAMENTO IN ECONOMIA - AFFIDAMENTO DIRETTO||01140590421||PLUSERVICE SRL||15000.00||2017_10203811004
Z3D1B42598||Accordo di co-marketing per la promozione di servizi  tra Innova Camera e Pluservice||23-AFFIDAMENTO IN ECONOMIA - AFFIDAMENTO DIRETTO||01140590421||PLUSERVICE SRL||15000.00||2017_10203811004
ZE518B6C73||SERVIZI implementazione licenze per accesso procedure Giove compreso trasferimento dati Gestionale Giove da FTV a SVT||23-AFFIDAMENTO IN ECONOMIA - AFFIDAMENTO DIRETTO||01140590421||Pluservice  srl||7700.00||2017_00153280243
Z23104DB5B||FORNITURE: Fornitura Stampanti smart card con codificatore||23-AFFIDAMENTO IN ECONOMIA - AFFIDAMENTO DIRETTO||01140590421||Pluservice srl||7860.00||2017_00153280243
6239080BAE||SERVIZIO Contratto di Manutenzione Software aziendali. Affidamento alla ditta Pluservice srl per il periodo 01/05/2015   30/04/2017.||06-PROCEDURA NEGOZIATA SENZA PREVIA INDIZIONE DI  GARA ART. 221 D.LGS. 163/2006||01140590421||Pluservice srl||150400.00||2017_00153280243
Z8114827FF||SERVIZIO Modifica al sistema gestionale Pluservice per consentire l'utilizzo condiviso dei palmari di FTV||23-AFFIDAMENTO IN ECONOMIA - AFFIDAMENTO DIRETTO||01140590421||Pluservice srl||15100.00||2017_00153280243
Z8614E9C74||SERVIZI Fornitura e installazione nuova Piattaforma di contabilità GIOVE||23-AFFIDAMENTO IN ECONOMIA - AFFIDAMENTO DIRETTO||01140590421||Pluservice S.r.l.||10000.00||2017_00153280243
Z0A1713FBA||SERVIZIO Contratto manutenzione  computer di bordo modello FLH BOX2  periodo 01/11/2015-30/04/2017||23-AFFIDAMENTO IN ECONOMIA - AFFIDAMENTO DIRETTO||01140590421||Pluservice srl||16650.00||2017_00153280243
Z9A17320BB||SERVIZIO Riparazione nr. 11 computer di bordo modello FLH BOX2||23-AFFIDAMENTO IN ECONOMIA - AFFIDAMENTO DIRETTO||01140590421||Pluservice srl||5550.00||2017_00153280243
ZA51BF1569||ATTIVITA' PER FUSIONE APS OPERE E APS FINANZIARIA IN APS HOLDING SU OCEANO E TELEMACO||23-AFFIDAMENTO IN ECONOMIA - AFFIDAMENTO DIRETTO||01140590421||PLUSERVICE SRL||8500.00||2017_03860240286
Z251A16C7A||MIGRAZIONE DATI E FORNITURA SISTEMA INFORMATIVO GIOVE E TELEMACO||08-AFFIDAMENTO IN ECONOMIA - COTTIMO FIDUCIARIO||01140590421||PLUSERVICE SRL||37190.00||2017_03860240286
ZA81A53C0E||acquisto licenze SW Telemaco||14-PROCEDURA SELETTIVA EX ART 238 C.7, D.LGS. 163/2006||01140590421||PLUSERVICE srl||1500.00||2017_03644010237
Z881974672||Telemaco: introduzione nuovo campo mensilità||14-PROCEDURA SELETTIVA EX ART 238 C.7, D.LGS. 163/2006||01140590421||PLUSERVICE srl||1250.00||2017_03644010237
Z97132EB58||CANONE MANUTENZIONE E AGGIORNAMENTO SW TELEMACO - 2015-2016||14-PROCEDURA SELETTIVA EX ART 238 C.7, D.LGS. 163/2006||01140590421||PLUSERVICE srl||36000.00||2017_03644010237
Z810EFF8B4||SERVIZIO DI MANUTENZIONE POS VERIFONE NURIT 8400 dal 01.06.2014 al 31.05.2016||14-PROCEDURA SELETTIVA EX ART 238 C.7, D.LGS. 163/2006||01140590421||PLUSERVICE srl||22000.00||2017_03644010237
Z371C4A0E5||Estrazione dati da Procedura Telemaco||14-PROCEDURA SELETTIVA EX ART 238 C.7, D.LGS. 163/2006||01140590421||PLUSERVICE srl||2700.00||2017_03644010237
50608433C2||SERVIZI: contratto di manutenzione software aziendali||06-PROCEDURA NEGOZIATA SENZA PREVIA INDIZIONE DI  GARA ART. 221 D.LGS. 163/2006||01140590421||PLUSERVICE SRL||149600.00||2016_00153280243
Z23104DB5B||FORNITURE: Fornitura Stampanti smart card con codificatore||23-AFFIDAMENTO IN ECONOMIA - AFFIDAMENTO DIRETTO||01140590421||Pluservice srl||7860.00||2016_00153280243
ZC41063F85||FORNITURE: Fornitura di n. 8 terminali palmari con software, licenze, configurazione, formazione, manutenzione||23-AFFIDAMENTO IN ECONOMIA - AFFIDAMENTO DIRETTO||01140590421||Pluservice srl||27800.00||2016_00153280243
Z1D13FA1F9||SERVIZIO Attivazione funzionalità Importazione file esterni procedura Verificatori||23-AFFIDAMENTO IN ECONOMIA - AFFIDAMENTO DIRETTO||01140590421||Pluservice srl||2850.00||2016_00153280243
6239080BAE||SERVIZIO Contratto di Manutenzione Software aziendali. Affidamento alla ditta Pluservice srl per il periodo 01/05/2015   30/04/2017.||06-PROCEDURA NEGOZIATA SENZA PREVIA INDIZIONE DI  GARA ART. 221 D.LGS. 163/2006||01140590421||Pluservice srl||150400.00||2016_00153280243
Z8114827FF||SERVIZIO Modifica al sistema gestionale Pluservice per consentire l'utilizzo condiviso dei palmari di FTV||23-AFFIDAMENTO IN ECONOMIA - AFFIDAMENTO DIRETTO||01140590421||Pluservice srl||15100.00||2016_00153280243
Z8614E9C74||SERVIZI Fornitura e installazione nuova Piattaforma di contabilità GIOVE||23-AFFIDAMENTO IN ECONOMIA - AFFIDAMENTO DIRETTO||01140590421||Pluservice S.r.l.||10000.00||2016_00153280243
Z0A1713FBA||SERVIZIO Contratto manutenzione  computer di bordo modello FLH BOX2  periodo 01/11/2015-30/04/2017||23-AFFIDAMENTO IN ECONOMIA - AFFIDAMENTO DIRETTO||01140590421||Pluservice srl||16650.00||2016_00153280243
Z9A17320BB||SERVIZIO Riparazione nr. 11 computer di bordo modello FLH BOX2||23-AFFIDAMENTO IN ECONOMIA - AFFIDAMENTO DIRETTO||01140590421||Pluservice srl||5550.00||2016_00153280243
Z5D1BE07FC||Contributo a Pluservice per sviluppo applicazione Mycicero per convenzione Università||23-AFFIDAMENTO IN ECONOMIA - AFFIDAMENTO DIRETTO||01140590421||PLUSERVICE SRL||750.00||2017_02150990428
Z0A1CB4991||FORNITURA MATERIALE PROMOZIONE E COUPON VALORE SOSTA CESENATICO||23-AFFIDAMENTO IN ECONOMIA - AFFIDAMENTO DIRETTO||01140590421||PLUSERVICE SRL||4098.37||2017_00358700391
Z7A1A3F5E8||SERVIZIO PRENOTAZIONE PAGAMENTO BUS TURISTICI TRAMITE MY CICERO||23-AFFIDAMENTO IN ECONOMIA - AFFIDAMENTO DIRETTO||01140590421||PLUSERVICE S.R.L.||11574.00||2017_81001510551
0000000000||Software parcometro||17-AFFIDAMENTO DIRETTO EX ART. 5 DELLA LEGGE N.381/91||01140590421||PLUSERVICE SRL||40.00||2017_01671350682
0000000000||Software parcometro||23-AFFIDAMENTO IN ECONOMIA - AFFIDAMENTO DIRETTO||01140590421||PLUSERVICE SRL||20.00||2017_01671350682
0000000000||Software parcometro||23-AFFIDAMENTO IN ECONOMIA - AFFIDAMENTO DIRETTO||01140590421||PLUSERVICE SRL||20.00||2017_01671350682
0000000000||Software parcometro||23-AFFIDAMENTO IN ECONOMIA - AFFIDAMENTO DIRETTO||01140590421||PLUSERVICE SRL||20.00||2017_01671350682
Z2F14332BD||n.25 penne digitali per lettura ottica multe con attivazione e canone annuo utilizzo in modalita asp.||23-AFFIDAMENTO IN ECONOMIA - AFFIDAMENTO DIRETTO||01140590421||PluService Srl||10675.00||2017_01816540510
X26113CFEA||SOFTEWEARE GESTIONALE GIOVE E SERVIZI DI START UP||23-AFFIDAMENTO IN ECONOMIA - AFFIDAMENTO DIRETTO||01140590421||PLUSERVICE SRL||11000.00||2016_00112550744
X6011DC70A||"FORMAZIONE E AFFIANCAMENTO  START UP SW GIOVE; MIGRAZIONE PROCEDURE PLUSERVICE SU NUOVO SERVER"||23-AFFIDAMENTO IN ECONOMIA - AFFIDAMENTO DIRETTO||01140590421||PLUSERVICE SRL||4350.00||2016_00112550744
X7611DC716||"ANALISI E REDAZIONE PROGETTO ESECUTIVO; PERSONALIZZAZIONE SOFTWARE FLUSSO RICHIESTE ACQUISTO; SERVIZIO CANONE SOFTWARE."||23-AFFIDAMENTO IN ECONOMIA - AFFIDAMENTO DIRETTO||01140590421||PLUSERVICE SRL||10100.00||2016_00112550744
XDB12D3B0C||SERVIZIO DI COMPILAZIONE ED INVIO ELETTRONICO DELLE FATTURE VERSO LA PUBBLICA AMMINISTRAZIONE E SERVIZIO DI ARCHIVIAZIONE SOSTITUTIVA||23-AFFIDAMENTO IN ECONOMIA - AFFIDAMENTO DIRETTO||01140590421||PLUSERVICE SRL||1200.00||2016_00112550744
X98170971F||CONSULENZA E FORMAZIONE SOFTWARE GIOVE - FLUSSO AUTOMATIZZATO ACQUISTI E REDAZIONE NUOVO PIANO DEI CONTI 2016||06-PROCEDURA NEGOZIATA SENZA PREVIA INDIZIONE DI  GARA ART. 221 D.LGS. 163/2006||01140590421||PLUSERVICE SRL||1000.00||2016_00112550744
XAE170972B|| MANUTENZIONE SOFTWARE PLUSERVICE TELEMACO, PERSONALIZZAZIONE MODULO PER GESTIONE RATEI/RISCONTI E CONSULENZA||06-PROCEDURA NEGOZIATA SENZA PREVIA INDIZIONE DI  GARA ART. 221 D.LGS. 163/2006||01140590421||PLUSERVICE SRL||3650.00||2016_00112550744
ZDE0F816DF||Materiale per verificatori||23-AFFIDAMENTO IN ECONOMIA - AFFIDAMENTO DIRETTO||01140590421||PLUSERVICE Srl||1975.00||2015_02046440513
ZDE0F816DF||Materiale per verificatori||23-AFFIDAMENTO IN ECONOMIA - AFFIDAMENTO DIRETTO||01140590421||PLUSERVICE Srl||1975.00||2017_02046440513
Z49131AA4C||Realizzazione ambiente unico TIEMME e TFT. Moduli import/export con EQUITALIA e POSTE||23-AFFIDAMENTO IN ECONOMIA - AFFIDAMENTO DIRETTO||01140590421||PLUSERVICE Srl||20400.00||2017_02046440513
Z701508E7C||Modifiche gestione multe a seguito modifiche legge regionale 42/98, oltre a modifiche verbale pagato||23-AFFIDAMENTO IN ECONOMIA - AFFIDAMENTO DIRETTO||01140590421||PLUSERVICE Srl||13500.00||2017_02046440513
ZDC1772853||Modifiche passaggio dati multe da pgm verificatori a commerciale||23-AFFIDAMENTO IN ECONOMIA - AFFIDAMENTO DIRETTO||01140590421||PLUSERVICE Srl||2500.00||2017_02046440513
ZE119BFCE1||Modifiche PGM Multe per la gestione di indirizzo corretto del multato e controlli prima invio A/R||23-AFFIDAMENTO IN ECONOMIA - AFFIDAMENTO DIRETTO||01140590421||PLUSERVICE Srl||2500.00||2017_02046440513
Z8C149A376||Tipicità 2015. Servizi promozione su MyCicero||23-AFFIDAMENTO IN ECONOMIA - AFFIDAMENTO DIRETTO||01140590421||PLUSERVICE S.R.L.||2000.00||2016_00334990447
Z3E1A311F4||implementazione software servizio giornaliero movimento.||23-AFFIDAMENTO IN ECONOMIA - AFFIDAMENTO DIRETTO||01140590421||PLUSERVICE||2000.00||2017_04874020284
Z1E196C9CA||servizio di supporto ai sistemi operativi aziendali  per l'anno 2016 e fornitura di 5 licenze Utente||23-AFFIDAMENTO IN ECONOMIA - AFFIDAMENTO DIRETTO||01140590421||Pluservice Srl||6100.00||2017_00288240690
Z6E1735595||SISTEMA INFORMATICO PER TURNAZIONE MS||23-AFFIDAMENTO IN ECONOMIA - AFFIDAMENTO DIRETTO||01140590421||Pluservice Srl||13000.00||2017_00288240690
Z6B1A4C991||Fornitura n. 2 stampanti toshiba TEC b-SA4TP||23-AFFIDAMENTO IN ECONOMIA - AFFIDAMENTO DIRETTO||01140590421||Pluservice Srl||1520.00||2017_00288240690
ZF31A97137||Affidamento fornitura supporto operativo in teleassistenza su software per il movimento.||23-AFFIDAMENTO IN ECONOMIA - AFFIDAMENTO DIRETTO||01140590421||Pluservice Srl||2000.00||2017_00288240690
68141720A0||Servizio di manutenzione ed assistenza sistemi applicativi pluservice GSM03-005bis - 2016.||23-AFFIDAMENTO IN ECONOMIA - AFFIDAMENTO DIRETTO||01140590421||Pluservice Srl||79000.00||2017_00288240690
Z361B7DAC3||Fornitura materiale di consumo stampanti per bigliettazione.||23-AFFIDAMENTO IN ECONOMIA - AFFIDAMENTO DIRETTO||01140590421||Pluservice Srl||2000.00||2017_00288240690
6873749D1B||Provvigioni e canoni su titoli venduti applicativi Pluservice||23-AFFIDAMENTO IN ECONOMIA - AFFIDAMENTO DIRETTO||01140590421||Pluservice Srl||130000.00||2017_00288240690
ZF01304165||ORDINE A FORNITORE N. 100040 MS||23-AFFIDAMENTO IN ECONOMIA - AFFIDAMENTO DIRETTO||01140590421||Pluservice Srl||16200.00||2017_00288240690
ZBE1CBDD1C||interfaccia telemaco sap pluservice cv||23-AFFIDAMENTO IN ECONOMIA - AFFIDAMENTO DIRETTO||01140590421||Pluservice Srl||26000.00||2017_00288240690
ZDE0F816DF||Materiale per verificatori||23-AFFIDAMENTO IN ECONOMIA - AFFIDAMENTO DIRETTO||01140590421||PLUSERVICE Srl||1975.00||2016_02046440513
Z49131AA4C||Realizzazione ambiente unico TIEMME e TFT. Moduli import/export con EQUITALIA e POSTE||23-AFFIDAMENTO IN ECONOMIA - AFFIDAMENTO DIRETTO||01140590421||PLUSERVICE Srl||20400.00||2016_02046440513
Z701508E7C||Modifiche gestione multe a seguito modifiche legge regionale 42/98, oltre a modifiche verbale pagato||23-AFFIDAMENTO IN ECONOMIA - AFFIDAMENTO DIRETTO||01140590421||PLUSERVICE Srl||13500.00||2016_02046440513
ZDC1772853||Modifiche passaggio dati multe da pgm verificatori a commerciale||23-AFFIDAMENTO IN ECONOMIA - AFFIDAMENTO DIRETTO||01140590421||PLUSERVICE Srl||2500.00||2016_02046440513
Z991A96F82||AFFIDAMENTO IN ECONOMIA - AFFIDAMENTO DIRETTO||23-AFFIDAMENTO IN ECONOMIA - AFFIDAMENTO DIRETTO||01140590421||PLUSERVICE S.R.L.||6663.02||2017_04498000266
ZB01ADC3C1||AFFIDAMENTO DIRETTO PER L'ACQUISIZONE DI UN SERVIZIO PER IL PAGAMENTO DELLA TARIFFA DI SOSTA MEDIANTE PIATTAFORMA MULTICANALE||23-AFFIDAMENTO IN ECONOMIA - AFFIDAMENTO DIRETTO||01140590421||PLUSERVICE SRL ||10000.00||2017_00560180127
0000000000||spese di rappresentanza ospiti aziendali||23-AFFIDAMENTO IN ECONOMIA - AFFIDAMENTO DIRETTO||01140590421||PLUSERVICE SRL||363.00||2017_00112550744
XAE170972B||MANUTENZIONE SOFTWARE PLUSERVICE TELEMACO, PERSONALIZZAZIONE MODULO PER GESTIONE RATEI/RISCONTI E CONSULENZA||06-PROCEDURA NEGOZIATA SENZA PREVIA INDIZIONE DI  GARA ART. 221 D.LGS. 163/2006||01140590421||PLUSERVICE SRL||3650.00||2017_00112550744
X7F170973F||CANONE ASSISTENZA SOFTWARE GIOVE||06-PROCEDURA NEGOZIATA SENZA PREVIA INDIZIONE DI  GARA ART. 221 D.LGS. 163/2006||01140590421||PLUSERVICE SRL||14912.02||2017_00112550744
XD01999E4A||ANALISI E FORMAZIONE SOFTWARE GIOVE||06-PROCEDURA NEGOZIATA SENZA PREVIA INDIZIONE DI  GARA ART. 221 D.LGS. 163/2006||01140590421||PLUSERVICE SRL||1700.00||2017_00112550744
X8B1999E52||FORMAZIONE UTILIZZO SOFTWARE GIOVE AREA TECNICA||06-PROCEDURA NEGOZIATA SENZA PREVIA INDIZIONE DI  GARA ART. 221 D.LGS. 163/2006||01140590421||PLUSERVICE SRL||1200.00||2017_00112550744
Z761B20130||MATERIALE PUBBLICITARIO APP MYCICERO||23-AFFIDAMENTO IN ECONOMIA - AFFIDAMENTO DIRETTO||01140590421||PLUSERVICE SRL||569.00||2017_00112550744
Z0D1B4D8D4||ATTIVAZIONE APP MYCICERO||23-AFFIDAMENTO IN ECONOMIA - AFFIDAMENTO DIRETTO||01140590421||PLUSERVICE SRL||1500.00||2017_00112550744
ZA6193977A||Servizio di manutenzione software Telemaco, software Officina e software Scuolabus||23-AFFIDAMENTO IN ECONOMIA - AFFIDAMENTO DIRETTO||01140590421||PLUSERVICE S.R.L.||9500.00||2017_01808020356
Z9719FEF68||Fornitura licenza software gestionale sinistri||23-AFFIDAMENTO IN ECONOMIA - AFFIDAMENTO DIRETTO||01140590421||PLUSERVICE S.R.L.||8150.00||2017_01808020356
XC50D1D9FF||canone 2014 Manutenzione SW Pluservice settore tpl||23-AFFIDAMENTO IN ECONOMIA - AFFIDAMENTO DIRETTO||01140590421||PLUSERVICE SRL - SENIGALLIA||3114.02||2016_00457550432
