ZB80DD047B||Manutenzione,riparazione e pronto intervento per impianti e manufatti rete idrica comuni zona 1||23-AFFIDAMENTO IN ECONOMIA - AFFIDAMENTO DIRETTO||01574230445||MARINI TELEMACO||25000.00||2016_00157980442
ZD51AA040B||LAVORI DI SISTEMAZIONE FOGNATURE ACQUE CHIARE VARIE VIE CIVITANOVA MARCHE ||23-AFFIDAMENTO IN ECONOMIA - AFFIDAMENTO DIRETTO||01574230445||MARINI TELEMACO||5646.55||2017_00262470438
Z151C50C68||Lavori di sistemazione fognatura ammalorata, sostituzione caditoie a bocca di lupo e realizzazione griglia via Einaudi||23-AFFIDAMENTO IN ECONOMIA - AFFIDAMENTO DIRETTO||01574230445||MARINI TELEMACO||4879.07||2017_00262470438
ZB80DD047B||Manutenzione,riparazione e pronto intervento per impianti e manufatti rete idrica comuni zona 1||23-AFFIDAMENTO IN ECONOMIA - AFFIDAMENTO DIRETTO||01574230445||MARINI TELEMACO||25000.00||2017_00157980442
