ZC015CC91D||Trasloco centralini telefonici del Comune di Vobarno. ANNO 2015||23-AFFIDAMENTO IN ECONOMIA - AFFIDAMENTO DIRETTO||02235360985||TELEMACO S.R.L.||1674.50||2016_00435460175
ZDB1B4A18F||REALIZZAZIONE RETE CABLATA||23-AFFIDAMENTO IN ECONOMIA - AFFIDAMENTO DIRETTO||02235360985||TELEMACO S.R.L.||8928.43||2017_01629350198
ZE81C8C472||OPERE DI CABLAGGIO E REAQLIZZAZIONE PUNTI RETE||23-AFFIDAMENTO IN ECONOMIA - AFFIDAMENTO DIRETTO||02235360985||TELEMACO S.R.L.||29205.27||2017_01629350198
X5C0D5A9B2||RIPARAZIONE CENTRALINO TELEFONICO PRESSO UFFICI COMUNALI.||23-AFFIDAMENTO IN ECONOMIA - AFFIDAMENTO DIRETTO||02235360985||TELEMACO BRESCIA||90.00||2015_00322970195
XFA11B83E9||ACQUISTO E POSA IN OPERA DI CENTRALE TELEFONICA PRESSO L'AGGREGAZIONE||08-AFFIDAMENTO IN ECONOMIA - COTTIMO FIDUCIARIO||02235360985||TELEMACO SRL||1868.00||2015_87002810171
