ZA612F4FDD||SERVIZI INFOCAMERE VIA INTERNET - CONTRATTO TELEMACO PER ACCESSO BANCA DATI C.C.I.A.A. ANNO 2015 - ASSUNZIONE IMPEGNO DI SPESA - LIQUIDAZIONE||23-AFFIDAMENTO IN ECONOMIA - AFFIDAMENTO DIRETTO||02313821100||INFOCAMERE||1110.00||2016_03391930157
