0000000000||CARNET ATA BASE||23-AFFIDAMENTO IN ECONOMIA - AFFIDAMENTO DIRETTO||02294450370||UNIONCAMERE EMILIA ROMAGNA||494.00||2016_80008090344
0000000000||CARNET ATA BASE||23-AFFIDAMENTO IN ECONOMIA - AFFIDAMENTO DIRETTO||02294450370||UNIONCAMERE EMILIA ROMAGNA||494.00||2017_80008090344
0000000000||Osservatorio dell'Economia: Indagine congiunturale E.R. anno 2014||24-AFFIDAMENTO DIRETTO A SOCIETA' IN HOUSE||02294450370||UNIONE REGIONALE DELLE CAMERE DI COMMERCIO DELL'EMILIA ROMAGNA||25376||2015_00292740388
.||ACQUISTO SERVIZIO TELEMATICO PER SPORTELLO SUAP TELEMACO||08-AFFIDAMENTO IN ECONOMIA - COTTIMO FIDUCIARIO||02294450370||Unioncamere Emilia-Romagna ||0.00||2016_00141530352
.||ACQUISTO SERVIZIO TELEMATICO PER SPORTELLO SUAP TELEMACO||08-AFFIDAMENTO IN ECONOMIA - COTTIMO FIDUCIARIO||02294450370||Unioncamere Emilia-Romagna ||0.00||2016_00141530352
