56032078AF||SERVIZI VARI DI GESTIONE E ORGANIZZAZIONE||26-AFFIDAMENTO DIRETTO IN ADESIONE AD ACCORDO QUADRO/CONVENZIONE||00142750926||CTM SPA||200000.00||2015_02448800926
5600321B14||SERVIZIO TELEMACO PER CCIAA||23-AFFIDAMENTO IN ECONOMIA - AFFIDAMENTO DIRETTO||00142750926||CTM SPA||288.70||2015_02448800926
Z20156EEF9||Spese viaggio trasporto studenti pendolari scuola media superiore Anno Scolastico 2015-2016  CTM.||23-AFFIDAMENTO IN ECONOMIA - AFFIDAMENTO DIRETTO||00142750926||C.T.M. S.P.A. Consorzio Trasporti e Mobilità||39990.56||2016_92010020920
Z52104463F||Fornitura tessere trasporto viaggio studenti pendolari scuola media superiore per l'anno scolastico 2014/2015 - Servizio  trasporto di linea CTM.||23-AFFIDAMENTO IN ECONOMIA - AFFIDAMENTO DIRETTO||00142750926||C.T.M. S.P.A. Consorzio Trasporti e Mobilità||39990.00||2016_92010020920
6180171671||SERVIZIO TELEMACO PAY (CAMERA DI COMMERCIO)||23-AFFIDAMENTO IN ECONOMIA - AFFIDAMENTO DIRETTO||00142750926||CTM SPA||131.70||2016_02448800926
61261334E0||SERVIZI VARI DI GESTIONE E ORGANIZZAZIONE||26-AFFIDAMENTO DIRETTO IN ADESIONE AD ACCORDO QUADRO/CONVENZIONE||00142750926||CTM SPA||200000.00||2016_02448800926
Z52104463F||Fornitura Tessere trasporto viaggio studenti pendolari scuola media superioreper l'anno scolastico 2014/15. Servizio trasporto di Linea CTM||23-AFFIDAMENTO IN ECONOMIA - AFFIDAMENTO DIRETTO||00142750926||C.T.M. S.P.A. Consorzio Trasporti e Mobilità||39990.00||2015_92010020920
Z4A135D842||ACQUISTO BIGLIETTI MEZZI  PUBBLICI||23-AFFIDAMENTO IN ECONOMIA - AFFIDAMENTO DIRETTO||00142750926||CTM SPA||305.45||2016_80005730926
Z7B136C117||ACQUISTO BIGLIETTI MEZZI PUBBLICI||23-AFFIDAMENTO IN ECONOMIA - AFFIDAMENTO DIRETTO||00142750926||CTM SPA||314.18||2016_80005730926
0000000000||
                Rimborso spese trasporto urbano 
    ||23-AFFIDAMENTO IN ECONOMIA - AFFIDAMENTO DIRETTO||00142750926||CTM||12.00||2016_80018410920
0000000000||
                Rimborso spese trasporto urbano 
    ||23-AFFIDAMENTO IN ECONOMIA - AFFIDAMENTO DIRETTO||00142750926||CTM||11.10||2016_80018410920
0000000000||
                Rimborso spese trasporto urbano     ||23-AFFIDAMENTO IN ECONOMIA - AFFIDAMENTO DIRETTO||00142750926||CTM||12.00||2016_80018410920
0000000000||
                Rimborso spese trasporto urbano 
    ||23-AFFIDAMENTO IN ECONOMIA - AFFIDAMENTO DIRETTO||00142750926||CTM||14.40||2016_80018410920
0000000000||
                Rimborso spese trasporto urbano 
    ||23-AFFIDAMENTO IN ECONOMIA - AFFIDAMENTO DIRETTO||00142750926||CTM||24.00||2016_80018410920
ZC61243D21||ACQUISTO BIGLIETTI MEZZI PUBBLICI||23-AFFIDAMENTO IN ECONOMIA - AFFIDAMENTO DIRETTO||00142750926||CTM SPA||480.00||2015_80005730926
ZBB12388B3||ACQUISTO BIGLIETTI MEZZI PUBBLICI||23-AFFIDAMENTO IN ECONOMIA - AFFIDAMENTO DIRETTO||00142750926||CTM SPA||198.55||2015_80005730926
Z9B0E343A7||ACQUISTO BIGLIETTI||23-AFFIDAMENTO IN ECONOMIA - AFFIDAMENTO DIRETTO||00142750926||CTM SPA||283.64||2015_80005730926
Z350E2A4C7||ACQUISTO BIGLIETTI||23-AFFIDAMENTO IN ECONOMIA - AFFIDAMENTO DIRETTO||00142750926||CTM SPA||174.55||2015_80005730926
Z6E0D7823B||ACQUISTO BIGLIETTI MEZZI PUBBLICI||23-AFFIDAMENTO IN ECONOMIA - AFFIDAMENTO DIRETTO||00142750926||CTM SPA||327.27||2015_80005730926
0000000000||IMPEGNO DI SPESA  SPESE VIAGGIO  PER LA PARTECIPAZIONE AL "CONVEGNO PLUS E SALUTE" DEL 12-04-2016||23-AFFIDAMENTO IN ECONOMIA - AFFIDAMENTO DIRETTO||00142750926||CTM SPA||1.20||2017_00072010952
0000000000||IMPEGNO DI SPESA  SPESE VIAGGIO  PER LA PARTECIPAZIONE AL "CONVEGNO PLUS E SALUTE" DEL 12-04-2016||23-AFFIDAMENTO IN ECONOMIA - AFFIDAMENTO DIRETTO||00142750926||CTM SPA||1.20||2017_00072010952
