Z371925270||RINNOVO ADESIONE AL SERVIZIO TELEMACO PER L'ACCESSO ALLA BANCA DATI INFOCAMERE. IMPEGNO DI SPESA PER IL PERIODO MAGGIO 2016/APRILE 2017.||23-AFFIDAMENTO IN ECONOMIA - AFFIDAMENTO DIRETTO||0231382100702313821007||INFOCAMEREINFOCAMERE||2000.00||2017_86003310017
ZC01B00A8B||RINNOVO ABBONAMENTO ACCESSO BANCA DATI TELEMACO||23-AFFIDAMENTO IN ECONOMIA - AFFIDAMENTO DIRETTO||0231382100702313821007||INFOCAMERE - SOCIETA' CONSORTILE DI INFORMATICA DELLE CAMERE DI COMMERCIO ITALIANE PER AZIONIINFOCAMERE - SOCIETA' CONSORTILE DI INFORMATICA DELLE CAMERE DI COMMERCIO ITALIANE PER AZIONI||1110.00||2017_00360090393
