Z9C177CA80||ABBONAMENTO SERVIZIO TELEMACO - ACCESSO PORTALE INFOCAMERE||23-AFFIDAMENTO IN ECONOMIA - AFFIDAMENTO DIRETTO||03076080179||OMNITALIA S.r.l.||1300.00||2017_01467410385
