0000000000||SERVIZIO TELEMACO ANNO 2016 FINO A MILLE VISURE||24-AFFIDAMENTO DIRETTO A SOCIETA' IN HOUSE||00990320228||Informatica Trentina S.p.A.||       590.00||2017_00286690227
0000000000||SERVIZIO TELEMACO ANNO 2016 FINO A 1000 VISURE||24-AFFIDAMENTO DIRETTO A SOCIETA' IN HOUSE||00990320228||Informatica Trentina S.p.A.||       590.00||2017_00286690227
0000000000||AFFIDAMENTO SERVIZIO TELEMACO PER L'ANNO 2017||24-AFFIDAMENTO DIRETTO A SOCIETA' IN HOUSE||00990320228||Informatica Trentina S.p.A.||      1130.00||2017_00286690227
0000000000||SERVIZIO TELEMACO ANNO 2016 FINO A MILLE VISURE||24-AFFIDAMENTO DIRETTO A SOCIETA' IN HOUSE||00990320228||Informatica Trentina S.p.A.||       590.00||2017_00286690227
0000000000||SERVIZIO TELEMACO ANNO 2016 FINO A 1000 VISURE||24-AFFIDAMENTO DIRETTO A SOCIETA' IN HOUSE||00990320228||Informatica Trentina S.p.A.||       590.00||2017_00286690227
0000000000||AFFIDAMENTO SERVIZIO TELEMACO PER L'ANNO 2017||24-AFFIDAMENTO DIRETTO A SOCIETA' IN HOUSE||00990320228||Informatica Trentina S.p.A.||      1130.00||2017_00286690227
Z911DDE7BC||INCARICO PER ATTIVAZIONE DELLE FUNZIONALITA' DI GESTIONE DELLE GARE TELEMATICHE DI LAVORI PUBBLICI SULLA PIATTAFORMA MERCURIO||23-AFFIDAMENTO IN ECONOMIA - AFFIDAMENTO DIRETTO||00990320228||Informatica Trentina S.p.A.||       522.00||2017_00316390228
Z521CDDA47||SERVIZIO ?TELEMACO? PER L?ANNO 2017 IN MODALITA WEB PER CONSULTAZIONE DATI DISPONIBILI NEGLI ARCHIVI INFORMATICI DELLA CAMERA DI COMMERCIO INDUSTRIA E ARTIGIANATO DI TRENTO||23-AFFIDAMENTO IN ECONOMIA - AFFIDAMENTO DIRETTO||00990320228||Informatica Trentina S.p.A.||       590.00||2017_00316390228
ZEF17F9E66||PROSECUZIONE DEL SERVIZIO ?TELEMACO? PER L?ANNO 2016 IN MODALITA WEB PER CONSULTAZIONE DATI DISPONIBILI NEGLI ARCHIVI INFORMATICI DELLA  CAMERA DI COMMERCIO INDUSTRIA E ARTIGIANATO DI TRENTO||23-AFFIDAMENTO IN ECONOMIA - AFFIDAMENTO DIRETTO||00990320228||Informatica Trentina S.p.A.||       800.00||2017_00316390228
0000000000||Spese a calcolo||23-AFFIDAMENTO IN ECONOMIA - AFFIDAMENTO DIRETTO||00990320228||Informatica Trentina S.p.A.||       310.00||2017_83005270224
0000000000||Spese a calcolo||23-AFFIDAMENTO IN ECONOMIA - AFFIDAMENTO DIRETTO||00990320228||Informatica Trentina S.p.A.||       404.00||2017_83005270224
X3311CF6D1||Integrazione PiTre con Albo telematico trentino. Impegno di spesa per attivazione servizio. CIG X3311CF6D1||23-AFFIDAMENTO IN ECONOMIA - AFFIDAMENTO DIRETTO||00990320228||Informatica Trentina S.p.A.||       200.00||2017_80005010220
X4911CF6DD||Impegno di spesa per attivita di spostamento su server remoto del servizio applicativo Ascot Web.||23-AFFIDAMENTO IN ECONOMIA - AFFIDAMENTO DIRETTO||00990320228||Informatica Trentina S.p.A.||       441.00||2017_80005010220
0000000000||Casella di posta elettronica certificata - canone anno 2016||24-AFFIDAMENTO DIRETTO A SOCIETA' IN HOUSE||00990320228||Informatica Trentina S.p.A.||        55.00||2017_80009310220
0000000000||Attivazione del servizio di firma digitale e fornitura di n. 7 Businnes Key Lite||24-AFFIDAMENTO DIRETTO A SOCIETA' IN HOUSE||00990320228||Informatica Trentina S.p.A.||       266.00||2017_80009310220
0000000000||Servizi professionali di supporto per l'evasione degli adempimenti propedeutici all'invio in conservazione delle fatture elettroniche||23-AFFIDAMENTO IN ECONOMIA - AFFIDAMENTO DIRETTO||00990320228||Informatica Trentina S.p.A.||       538.00||2017_80009310220
0000000000||Assistenza e manutenzione software SICRAWEB e servizio per la gestione delle fatture passive||24-AFFIDAMENTO DIRETTO A SOCIETA' IN HOUSE||00990320228||Informatica Trentina S.p.A.||      1138.00||2017_80009310220
Z431E0C89D||CORSO DI FORMAZIONE PER DIPENDENTI ANAGRAFE PROGRAMMA J DEMOS||23-AFFIDAMENTO IN ECONOMIA - AFFIDAMENTO DIRETTO||00990320228||Informatica Trentina S.p.A.||       150.00||2017_02402000224
X1119F9658||INTEGRAZIONE SPESA SOFTWARE ASCOT WEB PER INVIO FILE XML CORTE CONTI ||23-AFFIDAMENTO IN ECONOMIA - AFFIDAMENTO DIRETTO||00990320228||Informatica Trentina S.p.A.||       220.50||2017_02402000224
Z661C14201||SERVIZI PER CONSERVAZIONE DIGITALE||24-AFFIDAMENTO DIRETTO A SOCIETA' IN HOUSE||00990320228||Informatica Trentina S.p.A.||      2152.00||2017_02402000224
ZEC19DCF9B||AFFIDO INCARICO A INFORMATICA TRENTINA APPLICATIVO GESTIONE CONSENSO DONAZIONE ORGANI||24-AFFIDAMENTO DIRETTO A SOCIETA' IN HOUSE||00990320228||Informatica Trentina S.p.A.||      2706.89||2017_02402000224
Z261CB9C9C||CANONE E ASSISTENZA SOFTWARE SERV. EDILIZIA PRIVATA GIS-URBANISTICA||23-AFFIDAMENTO IN ECONOMIA - AFFIDAMENTO DIRETTO||00990320228||Informatica Trentina S.p.A.||      6400.00||2017_02402000224
0000000000||Attivazione servizio "Cassa Economale di Ascot/Web" - Servizi professionali con Informatica Trentina ||23-AFFIDAMENTO IN ECONOMIA - AFFIDAMENTO DIRETTO||00990320228||Informatica Trentina S.p.A.||       441.00||2017_91016130220
ZDA0DBD5DB||INC. ATTIVAZIONE CASELLA PER AVCPASS - INFORMATICA TRENTINA - DET. 24/14||23-AFFIDAMENTO IN ECONOMIA - AFFIDAMENTO DIRETTO||00990320228||Informatica Trentina S.p.A.||        25.00||2017_80006350229
Z4715AF722||AFF. SERVIZIO SUPPORTO TRASMISSIONE CONTO DI BILANCIO XML ALLA CORTE DEI CONTI - INFORMATICA TR. - DET. 93/2015||23-AFFIDAMENTO IN ECONOMIA - AFFIDAMENTO DIRETTO||00990320228||Informatica Trentina S.p.A.||       220.50||2017_80006350229
Z3814021D9||Affido integrazione Pi.Tre. per fatturaz. elettronica - Informatica Trentina - Determ. n. 28/2015||23-AFFIDAMENTO IN ECONOMIA - AFFIDAMENTO DIRETTO||00990320228||Informatica Trentina S.p.A.||       330.00||2017_80006350229
Z2617B00AF||INC. ATTIVAZ. SERVIZI ALL. E CERTIFICATI AL BILANCIO 2016 - INFORMATICA TRENTINA - DET. 164/2015||23-AFFIDAMENTO IN ECONOMIA - AFFIDAMENTO DIRETTO||00990320228||Informatica Trentina S.p.A.||       929.50||2017_80006350229
Z1E1451864||CONTRATTO DI MANUTENZ. ASSIST. SOFTWARE ASCOT/WEB CON INFORMATICA TRENTINA - DET. 02/2015||23-AFFIDAMENTO IN ECONOMIA - AFFIDAMENTO DIRETTO||00990320228||Informatica Trentina S.p.A.||      1333.00||2017_80006350229
