0000000000||Rimborso Spese Ristorante||23-AFFIDAMENTO IN ECONOMIA - AFFIDAMENTO DIRETTO||RCHFNC66A22Z110G||Dr. Rechichi||6.50||2017_82006160798
0000000000||Rimborso Spese Ristorante||23-AFFIDAMENTO IN ECONOMIA - AFFIDAMENTO DIRETTO||RCHFNC66A22Z110G||Dr. Rechichi||28.00||2017_82006160798
0000000000||Rimborso Spese Carburante||23-AFFIDAMENTO IN ECONOMIA - AFFIDAMENTO DIRETTO||RCHFNC66A22Z110G||Dr. Rechichi||30.00||2017_82006160798
0000000000||Rimborso Spese Ristorante||23-AFFIDAMENTO IN ECONOMIA - AFFIDAMENTO DIRETTO||RCHFNC66A22Z110G||Dr. Rechichi||11.80||2017_82006160798
0000000000||RICARICA TELEMACO DEPOSITO BILANCI||23-AFFIDAMENTO IN ECONOMIA - AFFIDAMENTO DIRETTO||RCHFNC66A22Z110G||DOTT. RECHICHI FRANCESCO||100.00||2017_82006160798
0000000000||RICARICA TELEMACO DEPOSITO BILANCI||23-AFFIDAMENTO IN ECONOMIA - AFFIDAMENTO DIRETTO||RCHFNC66A22Z110G||DOTT. RECHICHI FRANCESCO||140.00||2017_82006160798
0000000000||RIMBORSO SPESE CARBURANTE||23-AFFIDAMENTO IN ECONOMIA - AFFIDAMENTO DIRETTO||RCHFNC66A22Z110G||DOTT. RECHICHI FRANCESCO||30.00||2017_82006160798
0000000000||RIMBORSO SPESE CARBURANTE||23-AFFIDAMENTO IN ECONOMIA - AFFIDAMENTO DIRETTO||RCHFNC66A22Z110G||RECHICHI FRANCESCO||20.00||2017_82006160798
