ZC30D13A9F||Affidamento realizzazione visite guidate as 2013_2014||23-AFFIDAMENTO IN ECONOMIA - AFFIDAMENTO DIRETTO||02329970590||TELEMACO VIAGGI SRL||8893.64||2015_90027830596
ZE50F0AC9C||VISITA GUIDATA DEL 13_05_2014 A ROMA FORO ITALICO||23-AFFIDAMENTO IN ECONOMIA - AFFIDAMENTO DIRETTO||02329970590||TELEMACO VIAGGI SRL||563.64||2015_90027830596
