Z6016FA19E||Rinnovo licenza Academic Research HF - periodo 1/11/15-31/10/2016||23-AFFIDAMENTO IN ECONOMIA - AFFIDAMENTO DIRETTO||12646950159||ANSYS ITALIA SRL||1350.00||2016_81006500607
ZCF145C694||Rinnovo licenza SW Ansys Academic Research per prof. Amirante||23-AFFIDAMENTO IN ECONOMIA - AFFIDAMENTO DIRETTO||12646950159||ANSYS ITALIA Srl||4850.00||2016_93051590722
ZD514E2D62||Rinnovo Licenza Accademica ANSYS||23-AFFIDAMENTO IN ECONOMIA - AFFIDAMENTO DIRETTO||12646950159||ANSYS ITALIA Srl||2400.00||2016_93051590722
Z3217EE427||RINNOVO LICENZA ANNUALE. PERIODO 15/1/2016 - 14/01/2017. ANSYS Academic Teaching HF (5tasks)||23-AFFIDAMENTO IN ECONOMIA - AFFIDAMENTO DIRETTO||12646950159||ANSYS ITALIA SrL||350.00||2016_80213750583
Z6A1777864||MANUTENZIONE SW ACADEMIC ASS. MECHANICAL AND CFD||23-AFFIDAMENTO IN ECONOMIA - AFFIDAMENTO DIRETTO||12646950159||ANSYS ITALIA SRL||32223.08||2016_04532710631
ZD417994C4||manutenzione licenza HFSS per 12 mesi||23-AFFIDAMENTO IN ECONOMIA - AFFIDAMENTO DIRETTO||12646950159||Ansys Italia S.r.l.||2850.00||2016_00697920320
Z1D1A9B022||RINNOVO LICENZA SOFTWARE E SUPPORTO PER CODICE DI CALCOLO HFSS MEPA ODA N. 3160317||23-AFFIDAMENTO IN ECONOMIA - AFFIDAMENTO DIRETTO||12646950159||ANSYS ITALIA SRL||7500.00||2017_01320740580
Z0214F041A||RINNOVO LICENZA  CODICE HFSS||23-AFFIDAMENTO IN ECONOMIA - AFFIDAMENTO DIRETTO||12646950159||ANSYS ITALIA SRL||7500.00||2016_01320740580
Z841530D42||MANUTENZIONE LICENZE SW ANSYS||04-PROCEDURA NEGOZIATA SENZA PREVIA PUBBLICAZIONE DEL BANDO||12646950159||ANSYS ITALIA SRL||39938.61||2017_04532710631
Z6A1777864||MANUTENZIONE SW ACADEMIC ASS. MECHANICAL AND CFD||23-AFFIDAMENTO IN ECONOMIA - AFFIDAMENTO DIRETTO||12646950159||ANSYS ITALIA SRL||32223.08||2017_04532710631
ZC617778AD||MANUTENZIONE SOFTWARE ACADEMIC RESEARCH HF||04-PROCEDURA NEGOZIATA SENZA PREVIA PUBBLICAZIONE DEL BANDO||12646950159||ANSYS ITALIA SRL||1880.00||2017_04532710631
66358035DD||FORNITURA E MANUTENZIONE LICENZE SOFTWARE ANSYS||04-PROCEDURA NEGOZIATA SENZA PREVIA PUBBLICAZIONE DEL BANDO||12646950159||ANSYS ITALIA SRL||149920.00||2017_04532710631
ZCC1871D8C||SERVIZIO DI MANUENZIONE SW ANSYS ACADEMIC 2016||08-AFFIDAMENTO IN ECONOMIA - COTTIMO FIDUCIARIO||12646950159||ANSYS ITALIA SRL||28740.00||2017_04532710631
ZCB1C3C10A||Rinnovo licenza Software ANSYS Academic Research HF||23-AFFIDAMENTO IN ECONOMIA - AFFIDAMENTO DIRETTO||12646950159||ANSYS ITALIA SRL||1350.00||2017_81006500607
Z750932BA7||RINNOVO LICENZA SOFTWARE||23-AFFIDAMENTO IN ECONOMIA - AFFIDAMENTO DIRETTO||12646950159||ANSYS ITalia SRL||2350.00||2015_80004350163
Z9D0E8DF99||rinnovo licenza software||23-AFFIDAMENTO IN ECONOMIA - AFFIDAMENTO DIRETTO||12646950159||ANSYS ITalia SRL||2350.00||2015_80004350163
ZBB1C2CA8D||SOFTWARE||23-AFFIDAMENTO IN ECONOMIA - AFFIDAMENTO DIRETTO||12646950159||ANSYS  ITALIA SRL||3550.00||2017_80008870752
ZD71A3DB02||SOFTWARE||23-AFFIDAMENTO IN ECONOMIA - AFFIDAMENTO DIRETTO||12646950159||ANSYS  ITALIA SRL||2100.00||2017_80008870752
Z7610040A7||Rinnovo Licenza ANSYS - prof. Camporeale
||23-AFFIDAMENTO IN ECONOMIA - AFFIDAMENTO DIRETTO||12646950159||ANSYS ITALIA Srl||2400.00||2015_93051590722
Z4F0EA025D||Rinnovo licenza Ansys - prof Camporeale||23-AFFIDAMENTO IN ECONOMIA - AFFIDAMENTO DIRETTO||12646950159||ANSYS ITALIA Srl||5917.00||2015_93051590722
