Z8C10E6B74||SERVIZIO TELEMACO - INFOCAMERE||23-AFFIDAMENTO IN ECONOMIA - AFFIDAMENTO DIRETTO||02313821007     ||INFOCAMERE SCPA||1110.00||2015_80002870774
