Z2016D0556||MAINTENANCE LICENZA SOFTWARE  - ANSYS MECHANICAL  - ANSYS DESIGNMODELER||23-AFFIDAMENTO IN ECONOMIA - AFFIDAMENTO DIRETTO||00599320223||ENGINSOFT SPA||9270.00||2016_00807480108
Z8D0BE2032||MAINTENANCE ANSYS||23-AFFIDAMENTO IN ECONOMIA - AFFIDAMENTO DIRETTO||00599320223||ENGINSOFT S.P.A.||8870.00||2016_00807480108
Z02119BAD7||RINNOVO LICENZE SOFTWARE ANSYS||23-AFFIDAMENTO IN ECONOMIA - AFFIDAMENTO DIRETTO||00599320223||ENGINSOFT SPA||9000.00||2016_00807480108
57166454B0||RDO SU MEPA PER RINNOVO AFFITTO E MANUTENZIONE SOFTWARE ANSYS||08-AFFIDAMENTO IN ECONOMIA - COTTIMO FIDUCIARIO||00599320223||ENGINSOFT S.P.A.||81800.00||2015_01320740580
Z02119BAD7||RINNOVO LICENZE SOFTWARE ANSYS||23-AFFIDAMENTO IN ECONOMIA - AFFIDAMENTO DIRETTO||00599320223||ENGINSOFT SPA||9000.00||2017_02443880998
Z2016D0556||MAINTENANCE LICENZA SOFTWARE  - ANSYS MECHANICAL  - ANSYS DESIGNMODELER||23-AFFIDAMENTO IN ECONOMIA - AFFIDAMENTO DIRETTO||00599320223||ENGINSOFT SPA||9270.00||2017_02443880998
Z8D0BE2032||MAINTENANCE ANSYS||23-AFFIDAMENTO IN ECONOMIA - AFFIDAMENTO DIRETTO||00599320223||ENGINSOFT S.P.A.||8870.00||2017_02443880998
ZD21C6DC20||Rinnovo licenza Ansys 2017||23-AFFIDAMENTO IN ECONOMIA - AFFIDAMENTO DIRETTO||00599320223||ENGINSOFT SPA||0||2017_02003000227
Z02119BAD7||RINNOVO LICENZE SOFTWARE ANSYS||23-AFFIDAMENTO IN ECONOMIA - AFFIDAMENTO DIRETTO||00599320223||ENGINSOFT SPA||9000.00||2017_00807480108
Z2016D0556||MAINTENANCE LICENZA SOFTWARE  - ANSYS MECHANICAL  - ANSYS DESIGNMODELER||23-AFFIDAMENTO IN ECONOMIA - AFFIDAMENTO DIRETTO||00599320223||ENGINSOFT SPA||9270.00||2017_00807480108
Z8D0BE2032||MAINTENANCE ANSYS||23-AFFIDAMENTO IN ECONOMIA - AFFIDAMENTO DIRETTO||00599320223||ENGINSOFT S.P.A.||8870.00||2017_00807480108
Z501AA5EAD||ODA MEPA 3066165- ENGINSOFT spa - Licenza annuale 1/7/2016-30/6/2017 ANSYS Academic Teaching  Mechanical and CFD + licenza trimestrale modeFRONTIER||23-AFFIDAMENTO IN ECONOMIA - AFFIDAMENTO DIRETTO||00599320223||ENGINSOFT S.P.A||3450||2017_93008800505
Z571AA89BE||ODA MEPA 3066161- ENGINSOFT spa - Licenza annuale software “ANSYS Academic Research Mechanical and CFD (1 Task) + ANSYS Academic Research HPC (12)Teaching Mechanical and CFD” + licenza trimestrale software modeFRONTIER ||23-AFFIDAMENTO IN ECONOMIA - AFFIDAMENTO DIRETTO||00599320223||ENGINSOFT S.P.A||6950||2017_93008800505
Z56199824F||LICENZA SOFTWARE ANSYS ACADEMIC RESEARCH CFD 25||23-AFFIDAMENTO IN ECONOMIA - AFFIDAMENTO DIRETTO||00599320223||ENGIN SOFT||4850.00||2017_93051590722
ZB11997A7B||LICENZA SOFTWARE MODEFRONTIER||23-AFFIDAMENTO IN ECONOMIA - AFFIDAMENTO DIRETTO||00599320223||ENGIN SOFT||2400.00||2017_93051590722
ZC719B33BD||LICENZE SOFTWARE ANSYS ACADEMIC TEACHING MECHANICAL ||23-AFFIDAMENTO IN ECONOMIA - AFFIDAMENTO DIRETTO||00599320223||ENGIN SOFT||5040.00||2017_93051590722
ZFA1AB10DC||software per progettazione assistita||23-AFFIDAMENTO IN ECONOMIA - AFFIDAMENTO DIRETTO||00599320223||ENGINSOFT SPA||4750.00||2017_00697920320
Z631BB4D8C||CONTRATTO MANUTENZIONE LICENZA D'USO PERMANENTE DEL SW MAPLE: Maple Stand-Alone Non-Floating (per software Maple n. 475401) EMP - VALIDITA' DAL 03/07/2016 AL 02/07/2017||23-AFFIDAMENTO IN ECONOMIA - AFFIDAMENTO DIRETTO||00599320223||ENGINSOFT SPA||500.00||2017_01983460922
