6823473C0A||Realizzazione di fognatura a seguito dello studio idraulico comparto di Pinarella e Tagliata - Via dei Cosmonauti||04-PROCEDURA NEGOZIATA SENZA PREVIA PUBBLICAZIONE DEL BANDO||04188230405||IMPRESA POZZI RAFFAELE DI POZZI TELEMACO E C. S.A.S.||304782.00||2017_00360090393
6788369350||LAVORI URGENTI PER RIDURRE LE SITUAZIONI DI DISSESTO LUNGO LE SS.PP LOTTO N. 1 RICADENTI NEL NUCLEO CENTRO ANNO 2016 ||04-PROCEDURA NEGOZIATA SENZA PREVIA PUBBLICAZIONE DEL BANDO||04188230405||Pozzi Raffaele di Pozzi Telemaco e C. sas||17196.35||2017_91023860405
6871713CF2||LAVORI DI STRAORDINARIA MANUTENZIONE SSPP NUCLEO CENTRO ANNO 2016||04-PROCEDURA NEGOZIATA SENZA PREVIA PUBBLICAZIONE DEL BANDO||04188230405||Pozzi Raffaele di Pozzi Telemaco e C. sas||61618.78||2017_91023860405
ZBA19CBD5||S.P. 32 S. MARINO - KM. 1+650. INTERVENTO URGENTE DI MESSA IN SICUREZZA MEDIANTE REALIZZAZIONE DI OPERE STRUTTURALI  - ART. 10 L.R.1/05 (COD. INT.11974). AFFIDAMENTO LAVORI IN ECONOMIA.||23-AFFIDAMENTO IN ECONOMIA - AFFIDAMENTO DIRETTO||04188230405||Pozzi Raffaele di Pozzi Telemaco & C. Sas||12285.49||2017_91023860405
ZD919D1614||S.P. 14 TER DIRAMAZIONE TORRIANA KM. 2+200. INTERVENTO URGENTE DI MESSA IN SICUREZZA DELLA STRADA MEDIANTE REALIZZAZIONE DI OPERE STRUTTURALI. (COD. INT. 11800). AFFIDAMENTO LAVORI IN ECONOMIA ALLA DITTA POZZI RAFFAELE & C. SAS||23-AFFIDAMENTO IN ECONOMIA - AFFIDAMENTO DIRETTO||04188230405||Pozzi Raffaele di Pozzi Telemaco & C. Sas||5634.96||2017_91023860405
