56032078AF||SERVIZI VARI DI GESTIONE E ORGANIZZAZIONE||26-AFFIDAMENTO DIRETTO IN ADESIONE AD ACCORDO QUADRO/CONVENZIONE||00142750926||CTM SPA||200000.00||2015_02448800926
5600321B14||SERVIZIO TELEMACO PER CCIAA||23-AFFIDAMENTO IN ECONOMIA - AFFIDAMENTO DIRETTO||00142750926||CTM SPA||288.70||2015_02448800926
Z20156EEF9||Spese viaggio trasporto studenti pendolari scuola media superiore Anno Scolastico 2015-2016  CTM.||23-AFFIDAMENTO IN ECONOMIA - AFFIDAMENTO DIRETTO||00142750926||C.T.M. S.P.A. Consorzio Trasporti e Mobilità||39990.56||2016_92010020920
Z52104463F||Fornitura tessere trasporto viaggio studenti pendolari scuola media superiore per l'anno scolastico 2014/2015 - Servizio  trasporto di linea CTM.||23-AFFIDAMENTO IN ECONOMIA - AFFIDAMENTO DIRETTO||00142750926||C.T.M. S.P.A. Consorzio Trasporti e Mobilità||39990.00||2016_92010020920
6180171671||SERVIZIO TELEMACO PAY (CAMERA DI COMMERCIO)||23-AFFIDAMENTO IN ECONOMIA - AFFIDAMENTO DIRETTO||00142750926||CTM SPA||131.70||2016_02448800926
61261334E0||SERVIZI VARI DI GESTIONE E ORGANIZZAZIONE||26-AFFIDAMENTO DIRETTO IN ADESIONE AD ACCORDO QUADRO/CONVENZIONE||00142750926||CTM SPA||200000.00||2016_02448800926
Z52104463F||Fornitura Tessere trasporto viaggio studenti pendolari scuola media superioreper l'anno scolastico 2014/15. Servizio trasporto di Linea CTM||23-AFFIDAMENTO IN ECONOMIA - AFFIDAMENTO DIRETTO||00142750926||C.T.M. S.P.A. Consorzio Trasporti e Mobilità||39990.00||2015_92010020920
Z4A135D842||ACQUISTO BIGLIETTI MEZZI  PUBBLICI||23-AFFIDAMENTO IN ECONOMIA - AFFIDAMENTO DIRETTO||00142750926||CTM SPA||305.45||2016_80005730926
Z7B136C117||ACQUISTO BIGLIETTI MEZZI PUBBLICI||23-AFFIDAMENTO IN ECONOMIA - AFFIDAMENTO DIRETTO||00142750926||CTM SPA||314.18||2016_80005730926
0000000000||
                Rimborso spese trasporto urbano 
    ||23-AFFIDAMENTO IN ECONOMIA - AFFIDAMENTO DIRETTO||00142750926||CTM||12.00||2016_80018410920
0000000000||
                Rimborso spese trasporto urbano 
    ||23-AFFIDAMENTO IN ECONOMIA - AFFIDAMENTO DIRETTO||00142750926||CTM||11.10||2016_80018410920
0000000000||
                Rimborso spese trasporto urbano     ||23-AFFIDAMENTO IN ECONOMIA - AFFIDAMENTO DIRETTO||00142750926||CTM||12.00||2016_80018410920
0000000000||
                Rimborso spese trasporto urbano 
    ||23-AFFIDAMENTO IN ECONOMIA - AFFIDAMENTO DIRETTO||00142750926||CTM||14.40||2016_80018410920
0000000000||
                Rimborso spese trasporto urbano 
    ||23-AFFIDAMENTO IN ECONOMIA - AFFIDAMENTO DIRETTO||00142750926||CTM||24.00||2016_80018410920
ZC61243D21||ACQUISTO BIGLIETTI MEZZI PUBBLICI||23-AFFIDAMENTO IN ECONOMIA - AFFIDAMENTO DIRETTO||00142750926||CTM SPA||480.00||2015_80005730926
ZBB12388B3||ACQUISTO BIGLIETTI MEZZI PUBBLICI||23-AFFIDAMENTO IN ECONOMIA - AFFIDAMENTO DIRETTO||00142750926||CTM SPA||198.55||2015_80005730926
Z9B0E343A7||ACQUISTO BIGLIETTI||23-AFFIDAMENTO IN ECONOMIA - AFFIDAMENTO DIRETTO||00142750926||CTM SPA||283.64||2015_80005730926
Z350E2A4C7||ACQUISTO BIGLIETTI||23-AFFIDAMENTO IN ECONOMIA - AFFIDAMENTO DIRETTO||00142750926||CTM SPA||174.55||2015_80005730926
Z6E0D7823B||ACQUISTO BIGLIETTI MEZZI PUBBLICI||23-AFFIDAMENTO IN ECONOMIA - AFFIDAMENTO DIRETTO||00142750926||CTM SPA||327.27||2015_80005730926
0000000000||IMPEGNO DI SPESA  SPESE VIAGGIO  PER LA PARTECIPAZIONE AL "CONVEGNO PLUS E SALUTE" DEL 12-04-2016||23-AFFIDAMENTO IN ECONOMIA - AFFIDAMENTO DIRETTO||00142750926||CTM SPA||1.20||2017_00072010952
0000000000||IMPEGNO DI SPESA  SPESE VIAGGIO  PER LA PARTECIPAZIONE AL "CONVEGNO PLUS E SALUTE" DEL 12-04-2016||23-AFFIDAMENTO IN ECONOMIA - AFFIDAMENTO DIRETTO||00142750926||CTM SPA||1.20||2017_00072010952
5918803EBC||SERVIZI AMMINISTRATIVI E UTILIZZO LOCALI||26-AFFIDAMENTO DIRETTO IN ADESIONE AD ACCORDO QUADRO/CONVENZIONE||00142750926||CTM SPA||23563.50||2015_03074540927
0000000000||
                Rimborso spese di trasporto urbano    ||23-AFFIDAMENTO IN ECONOMIA - AFFIDAMENTO DIRETTO||00142750926||CTM||1.30||2017_80018410920
0000000000||
                Spese di trasporto urbano     ||23-AFFIDAMENTO IN ECONOMIA - AFFIDAMENTO DIRETTO||00142750926||CTM||1.20||2017_80018410920
0000000000||
                Spese di trasporto urbano     ||23-AFFIDAMENTO IN ECONOMIA - AFFIDAMENTO DIRETTO||00142750926||CTM||1.20||2017_80018410920
0000000000||
                Spese di trasporto urbano    ||23-AFFIDAMENTO IN ECONOMIA - AFFIDAMENTO DIRETTO||00142750926||CTM||1.20||2017_80018410920
0000000000||
                Rimborso spese di trasporto urbano     ||23-AFFIDAMENTO IN ECONOMIA - AFFIDAMENTO DIRETTO||00142750926||CTM||1.20||2017_80018410920
0000000000||
                Rimborso spese di trasporto urbano
    ||23-AFFIDAMENTO IN ECONOMIA - AFFIDAMENTO DIRETTO||00142750926||CTM||2.40||2017_80018410920
0000000000||
                Rimborso spese di trasporto urbano
    ||23-AFFIDAMENTO IN ECONOMIA - AFFIDAMENTO DIRETTO||00142750926||CTM||3.60||2017_80018410920
0000000000||
                Rimborso spese di trasporto urbano
    ||23-AFFIDAMENTO IN ECONOMIA - AFFIDAMENTO DIRETTO||00142750926||CTM||2.40||2017_80018410920
0000000000||
                Spese di trasporto urbano    ||23-AFFIDAMENTO IN ECONOMIA - AFFIDAMENTO DIRETTO||00142750926||CTM||12.00||2017_80018410920
0000000000||
                Spese di trasporto urbano    ||23-AFFIDAMENTO IN ECONOMIA - AFFIDAMENTO DIRETTO||00142750926||CTM||12.00||2017_80018410920
ZF916173FB||Servizio trasporto per la settimana della mobilita’ sostenibile||23-AFFIDAMENTO IN ECONOMIA - AFFIDAMENTO DIRETTO||00142750926||CTM spa||1232.79||2016_92133380920
Z20156EEF9||Spese viaggio trasporto studenti pendolari scuola media superiore Anno Scolastico 2015-2016 CTM.||23-AFFIDAMENTO IN ECONOMIA - AFFIDAMENTO DIRETTO||00142750926||C.T.M. S.P.A. Consorzio Trasporti e Mobilità||39990.56||2017_92010020920
ZAC1A75E46||Spese viaggio trasporto studenti pendolari scuola media superiore Anno scolastico 2016-17 Servizio CTM||23-AFFIDAMENTO IN ECONOMIA - AFFIDAMENTO DIRETTO||00142750926||C.T.M. S.P.A. Consorzio Trasporti e Mobilità||35000.00||2017_92010020920
ZBD184BA98||SERVIZIO DI BIGLIETTERIA MEZZI DI TRASPORTO||23-AFFIDAMENTO IN ECONOMIA - AFFIDAMENTO DIRETTO||00142750926||CTM SPA||510.55||2017_80005730926
4875974508||Debiti fuori Bilancio - Servizio Bus navetta - Impegno di spesa a favore del CTM.||23-AFFIDAMENTO IN ECONOMIA - AFFIDAMENTO DIRETTO||00142750926||CTM SPA||25039.25||2015_00288630924
6289573FD1||SERVIZI AMMINISTRATIVI E UTILIZZO LOCALI||23-AFFIDAMENTO IN ECONOMIA - AFFIDAMENTO DIRETTO||00142750926||CTM SPA||42453.32||2016_03074540927
6373961702||DISTACCO PERSONALE PER APPALTO 'SUPPORTO A FLOTTA TPL'||23-AFFIDAMENTO IN ECONOMIA - AFFIDAMENTO DIRETTO||00142750926||CTM SPA||5103.48||2016_03074540927
