Z6016FA19E||Rinnovo licenza Academic Research HF - periodo 1/11/15-31/10/2016||23-AFFIDAMENTO IN ECONOMIA - AFFIDAMENTO DIRETTO||12646950159||ANSYS ITALIA SRL||1350.00||2016_81006500607
ZCF145C694||Rinnovo licenza SW Ansys Academic Research per prof. Amirante||23-AFFIDAMENTO IN ECONOMIA - AFFIDAMENTO DIRETTO||12646950159||ANSYS ITALIA Srl||4850.00||2016_93051590722
ZD514E2D62||Rinnovo Licenza Accademica ANSYS||23-AFFIDAMENTO IN ECONOMIA - AFFIDAMENTO DIRETTO||12646950159||ANSYS ITALIA Srl||2400.00||2016_93051590722
Z3217EE427||RINNOVO LICENZA ANNUALE. PERIODO 15/1/2016 - 14/01/2017. ANSYS Academic Teaching HF (5tasks)||23-AFFIDAMENTO IN ECONOMIA - AFFIDAMENTO DIRETTO||12646950159||ANSYS ITALIA SrL||350.00||2016_80213750583
