ZDA14E92BD||MANUTENZIONE SW LS-DYNA||23-AFFIDAMENTO IN ECONOMIA - AFFIDAMENTO DIRETTO||10979110011||DYNAmore Italia srl||8400.00||2017_04532710631
Z8A0CE1500||noleggio annuale licenza software||23-AFFIDAMENTO IN ECONOMIA - AFFIDAMENTO DIRETTO||10979110011||DYNAMORE ITALIA SRL||975.00||2015_80004350163
