ZA41665C95||Acquisto vasi e piante||04-PROCEDURA NEGOZIATA SENZA PREVIA PUBBLICAZIONE DEL BANDO||01885990505||SPAZIO VERDE s.s.a.||73.61||2016_90002900505
ZB7185F89C||FORNITURA E MESSA A DIMORA DI N.10 ALBERI IN LOC. CAPRONA, VIA TELEMACO SIGNORINI||23-AFFIDAMENTO IN ECONOMIA - AFFIDAMENTO DIRETTO||01885990505||SPAZIO VERDE S.S. AGRICOLA||850.00||2017_00230610503
ZA51A6BF21||SERVIZIO DI MANUTENZIONE ALLE ALBERATURE DELLA PISTA CICLABILE DI ULIVETO TERME||23-AFFIDAMENTO IN ECONOMIA - AFFIDAMENTO DIRETTO||01885990505||SPAZIO VERDE S.S. AGRICOLA||2700.00||2017_00230610503
Z1D1C52909||ACQUISTO ABETI E PIANTE DECORATIVE PER LE FESTIVITA' NATALIZIE||23-AFFIDAMENTO IN ECONOMIA - AFFIDAMENTO DIRETTO||01885990505||SPAZIO VERDE S.S. AGRICOLA||450.00||2017_00230610503
Z601363C50||SERVIZIO DI MANUTENZIONE E MANTENIMENTO DELLE ALBERATURE DI RECENTE PIANTUMAZIONE PRESENTI SU VIALI, PISTE CICLABILI E SPAZI A VERDE DEL COMUNE DI VICOPSIANO||08-AFFIDAMENTO IN ECONOMIA - COTTIMO FIDUCIARIO||01885990505||SPAZIO VERDE S.S. AGRICOLA||8150.00||2016_00230610503
Z2117472BC||FORNITURA E MESSA IN OPERA DI BORDO ARBUSTIVO PRESSO LA PIAZZETTA ANTISTANTE IL PALAZZO PRETORIO A VICOPISANO||23-AFFIDAMENTO IN ECONOMIA - AFFIDAMENTO DIRETTO||01885990505||SPAZIO VERDE S.S. AGRICOLA||6100.00||2016_00230610503
6531947D2C||INTERVENTI DI MANUTENZIONE AREE VERDI E SISTEMAZIONE PIANTUMAZIONI NELLE PRINCIPALI PIAZZE DEL CAPOLUOGO||23-AFFIDAMENTO IN ECONOMIA - AFFIDAMENTO DIRETTO||01885990505||SPAZIO VERDE SSA||15798.37||2016_00353170509
6189370DB0||AFFIDAMENTO INTERVENTI DI MANUTENZIONE STRAORDINARIA E SISTEMAZIONE DI PIANTUMAZIONI, SUPERFICI A VERDE E RELATIVE INFRASTRUTTURE ED IMPIANTI DELLE PRINCIPALI AREE A VERDE DEL CAPOLUOGO||23-AFFIDAMENTO IN ECONOMIA - AFFIDAMENTO DIRETTO||01885990505||SPAZIO VERDE S.S.A.||30289.77||2016_00353170509
