Z2016D0556||MAINTENANCE LICENZA SOFTWARE  - ANSYS MECHANICAL  - ANSYS DESIGNMODELER||23-AFFIDAMENTO IN ECONOMIA - AFFIDAMENTO DIRETTO||00599320223||ENGINSOFT SPA||9270.00||2016_00807480108
Z8D0BE2032||MAINTENANCE ANSYS||23-AFFIDAMENTO IN ECONOMIA - AFFIDAMENTO DIRETTO||00599320223||ENGINSOFT S.P.A.||8870.00||2016_00807480108
Z02119BAD7||RINNOVO LICENZE SOFTWARE ANSYS||23-AFFIDAMENTO IN ECONOMIA - AFFIDAMENTO DIRETTO||00599320223||ENGINSOFT SPA||9000.00||2016_00807480108
57166454B0||RDO SU MEPA PER RINNOVO AFFITTO E MANUTENZIONE SOFTWARE ANSYS||08-AFFIDAMENTO IN ECONOMIA - COTTIMO FIDUCIARIO||00599320223||ENGINSOFT S.P.A.||81800.00||2015_01320740580
Z02119BAD7||RINNOVO LICENZE SOFTWARE ANSYS||23-AFFIDAMENTO IN ECONOMIA - AFFIDAMENTO DIRETTO||00599320223||ENGINSOFT SPA||9000.00||2017_02443880998
Z2016D0556||MAINTENANCE LICENZA SOFTWARE  - ANSYS MECHANICAL  - ANSYS DESIGNMODELER||23-AFFIDAMENTO IN ECONOMIA - AFFIDAMENTO DIRETTO||00599320223||ENGINSOFT SPA||9270.00||2017_02443880998
Z8D0BE2032||MAINTENANCE ANSYS||23-AFFIDAMENTO IN ECONOMIA - AFFIDAMENTO DIRETTO||00599320223||ENGINSOFT S.P.A.||8870.00||2017_02443880998
ZD21C6DC20||Rinnovo licenza Ansys 2017||23-AFFIDAMENTO IN ECONOMIA - AFFIDAMENTO DIRETTO||00599320223||ENGINSOFT SPA||0||2017_02003000227
Z02119BAD7||RINNOVO LICENZE SOFTWARE ANSYS||23-AFFIDAMENTO IN ECONOMIA - AFFIDAMENTO DIRETTO||00599320223||ENGINSOFT SPA||9000.00||2017_00807480108
Z2016D0556||MAINTENANCE LICENZA SOFTWARE  - ANSYS MECHANICAL  - ANSYS DESIGNMODELER||23-AFFIDAMENTO IN ECONOMIA - AFFIDAMENTO DIRETTO||00599320223||ENGINSOFT SPA||9270.00||2017_00807480108
Z8D0BE2032||MAINTENANCE ANSYS||23-AFFIDAMENTO IN ECONOMIA - AFFIDAMENTO DIRETTO||00599320223||ENGINSOFT S.P.A.||8870.00||2017_00807480108
Z501AA5EAD||ODA MEPA 3066165- ENGINSOFT spa - Licenza annuale 1/7/2016-30/6/2017 ANSYS Academic Teaching  Mechanical and CFD + licenza trimestrale modeFRONTIER||23-AFFIDAMENTO IN ECONOMIA - AFFIDAMENTO DIRETTO||00599320223||ENGINSOFT S.P.A||3450||2017_93008800505
Z571AA89BE||ODA MEPA 3066161- ENGINSOFT spa - Licenza annuale software “ANSYS Academic Research Mechanical and CFD (1 Task) + ANSYS Academic Research HPC (12)Teaching Mechanical and CFD” + licenza trimestrale software modeFRONTIER ||23-AFFIDAMENTO IN ECONOMIA - AFFIDAMENTO DIRETTO||00599320223||ENGINSOFT S.P.A||6950||2017_93008800505
Z56199824F||LICENZA SOFTWARE ANSYS ACADEMIC RESEARCH CFD 25||23-AFFIDAMENTO IN ECONOMIA - AFFIDAMENTO DIRETTO||00599320223||ENGIN SOFT||4850.00||2017_93051590722
ZB11997A7B||LICENZA SOFTWARE MODEFRONTIER||23-AFFIDAMENTO IN ECONOMIA - AFFIDAMENTO DIRETTO||00599320223||ENGIN SOFT||2400.00||2017_93051590722
ZC719B33BD||LICENZE SOFTWARE ANSYS ACADEMIC TEACHING MECHANICAL ||23-AFFIDAMENTO IN ECONOMIA - AFFIDAMENTO DIRETTO||00599320223||ENGIN SOFT||5040.00||2017_93051590722
ZFA1AB10DC||software per progettazione assistita||23-AFFIDAMENTO IN ECONOMIA - AFFIDAMENTO DIRETTO||00599320223||ENGINSOFT SPA||4750.00||2017_00697920320
Z631BB4D8C||CONTRATTO MANUTENZIONE LICENZA D'USO PERMANENTE DEL SW MAPLE: Maple Stand-Alone Non-Floating (per software Maple n. 475401) EMP - VALIDITA' DAL 03/07/2016 AL 02/07/2017||23-AFFIDAMENTO IN ECONOMIA - AFFIDAMENTO DIRETTO||00599320223||ENGINSOFT SPA||500.00||2017_01983460922
Z8B1404EC5||Licenza software||23-AFFIDAMENTO IN ECONOMIA - AFFIDAMENTO DIRETTO||00599320223||ENGIN SOFT||1500.00||2016_93051590722
Z631425862||rinnovo annuale licenza SW Modefrontier per il prof Amirante
||23-AFFIDAMENTO IN ECONOMIA - AFFIDAMENTO DIRETTO||00599320223||ENGIN SOFT||1000.00||2016_93051590722
65672233DC||ACQUISTO LICENZE SOFTWARE ANSYS-DWDM. - RIF: C0070F16.||22-PROCEDURA NEGOZIATA DERIVANTE DA AVVISI CON CUI SI INDICE LA GARA||00599320223||Enginsoft spa||51000.00||2017_05779721009
Z1D10C9649||PARTECIPAZIONE CAE CONFERENCE PROGETTO INTERTECH||23-AFFIDAMENTO IN ECONOMIA - AFFIDAMENTO DIRETTO||00599320223||ENGINSOFT SPA||2000.00||2015_04636360267
Z8410F42F6||MANUTENZIONE SW LS-DYNA ANNO 2014||23-AFFIDAMENTO IN ECONOMIA - AFFIDAMENTO DIRETTO||00599320223||ENGINSOFT SPA||11200.00||2016_04532710631
52154537F6||ACQUISTO E MANUTENZIONE  LICENZE SW ANSYS||23-AFFIDAMENTO IN ECONOMIA - AFFIDAMENTO DIRETTO||00599320223||ENGINSOFT SPA||293000.00||2016_04532710631
Z5914AC1BD||rinnovo licenza software Ansys||23-AFFIDAMENTO IN ECONOMIA - AFFIDAMENTO DIRETTO||00599320223||Enginsoft S.p.A.||4750.00||2016_00697920320
Z7118F7017||SW ANSYS per Facoltà di Scienze e Tecnologie||23-AFFIDAMENTO IN ECONOMIA - AFFIDAMENTO DIRETTO||00599320223||Enginsoft||9885.00||2017_94060760215
Z1B1B697C6||Rinnovo Maple 100 Floating 10/2016-10/2017||23-AFFIDAMENTO IN ECONOMIA - AFFIDAMENTO DIRETTO||00599320223||Enginsoft||2800.00||2017_94060760215
66846847BD||LICENZE ANSYS||08-AFFIDAMENTO IN ECONOMIA - COTTIMO FIDUCIARIO||00599320223||ENGINSOFT S.P.A.||72037.00||2017_01320740580
62330950B7||RDO SU MEPA PER LA FORNITURA DI SOFTWARE ANSYS||08-AFFIDAMENTO IN ECONOMIA - COTTIMO FIDUCIARIO||00599320223||ENGINSOFT S.P.A.||54400.00||2016_01320740580
Z10179C4ED||Manutenzione SW Modefrontier||04-PROCEDURA NEGOZIATA SENZA PREVIA PUBBLICAZIONE DEL BANDO||00599320223||ENGINSOFT SPA||5850.00||2017_04532710631
ZB41B97343||SERVIZIO DI MANUTENZIONE SW MODEFRONTIER||04-PROCEDURA NEGOZIATA SENZA PREVIA PUBBLICAZIONE DEL BANDO||00599320223||ENGINSOFT SPA||6000.00||2017_04532710631
Z8B1BA0225||SERVIZIO DI MANUTENZIONE SW MAPLE||04-PROCEDURA NEGOZIATA SENZA PREVIA PUBBLICAZIONE DEL BANDO||00599320223||ENGINSOFT SPA||1824.00||2017_04532710631
Z621CB5D5D||SERVIZIO DI NOLEGGIO SW: LS-DYNA||23-AFFIDAMENTO IN ECONOMIA - AFFIDAMENTO DIRETTO||00599320223||ENGINSOFT SPA||1400.00||2017_04532710631
Z481A3DDA5||SOFTWARE||23-AFFIDAMENTO IN ECONOMIA - AFFIDAMENTO DIRETTO||00599320223||ENGINSOFT SPA||1200.00||2017_80008870752
Z711C792D2||SOFTWARE||04-PROCEDURA NEGOZIATA SENZA PREVIA PUBBLICAZIONE DEL BANDO||00599320223||ENGINSOFT SPA||10000.00||2017_80008870752
Z84101A07E||MEPA 1448722 BO ENGINSOFT rinnovo licenza ANSYS Academic Teaching Introductory 01.07.2014-30.06.2015||23-AFFIDAMENTO IN ECONOMIA - AFFIDAMENTO DIRETTO||00599320223||ENGINSOFT S.P.A||3450||2015_93008800505
Z6410294D4||MEPA 1448248 BO ENGINSOFT Licenza annuale ANSYS Academic Research Mechanical and CFD||23-AFFIDAMENTO IN ECONOMIA - AFFIDAMENTO DIRETTO||00599320223||ENGINSOFT S.P.A||5125||2015_93008800505
Z3E11843CE||BO ENGIN SOFT Licenza ANSYS Academic Research HPC per nr. 8 core 1/11/14-30/6/15||23-AFFIDAMENTO IN ECONOMIA - AFFIDAMENTO DIRETTO||00599320223||ENGINSOFT S.P.A||1074||2015_93008800505
Z5C0FB3C18||mode frontier teaching kit 10 task per € 1000 per il prof Amirante (rich. Papagna)
||23-AFFIDAMENTO IN ECONOMIA - AFFIDAMENTO DIRETTO||00599320223||ENGIN SOFT||1000.00||2015_93051590722
Z0C0E2DB6B||ASSISTENZA INFORMATICA E MANUTENZIONE SOFTWARE||08-AFFIDAMENTO IN ECONOMIA - COTTIMO FIDUCIARIO||00599320223||ENGIN SOFT||5500.00||2015_93051590722
