0000000000||VISURA CAMERALE||23-AFFIDAMENTO IN ECONOMIA - AFFIDAMENTO DIRETTO||02517930729||C.C.I.A.A.||5.00||2016_05487980723
0000000000||vidimazione registro carico e scarico rifiuti||23-AFFIDAMENTO IN ECONOMIA - AFFIDAMENTO DIRETTO||02517930729||C.C.I.A.A.||25.00||2016_05487980723
0000000000||VIDIMAZIONE REGISTRO CARICO E SCARICO RIFIUTI||23-AFFIDAMENTO IN ECONOMIA - AFFIDAMENTO DIRETTO||02517930729||C.C.I.A.A.||25.00||2016_05487980723
0000000000||VIDIMAZIONE REGISTRO CARICO E SCARICO RIFIUTI||23-AFFIDAMENTO IN ECONOMIA - AFFIDAMENTO DIRETTO||02517930729||C.C.I.A.A.||25.00||2016_05487980723
0000000000||VIDIMAZIONE REGISTRO DI CARICO E SCARICO||23-AFFIDAMENTO IN ECONOMIA - AFFIDAMENTO DIRETTO||02517930729||C.C.I.A.A.||25.00||2016_05487980723
0000000000||VIDIMAZIONE REGISTRO CARICO E SCARICO RIFIUTI||23-AFFIDAMENTO IN ECONOMIA - AFFIDAMENTO DIRETTO||02517930729||C.C.I.A.A.||25.00||2016_05487980723
0000000000||VIDIMAZIONE N.2 REGISTRI CARICO E SCARICO RIFIUTI||23-AFFIDAMENTO IN ECONOMIA - AFFIDAMENTO DIRETTO||02517930729||C.C.I.A.A.||50.00||2016_05487980723
0000000000||VIDIMAZIONE REGISTRO DI CARICO E SCARICO REGISTRI||23-AFFIDAMENTO IN ECONOMIA - AFFIDAMENTO DIRETTO||02517930729||C.C.I.A.A.||25.00||2016_05487980723
0000000000||VIDIMAZIONE REGISTRO DI CARICO SCARICO||23-AFFIDAMENTO IN ECONOMIA - AFFIDAMENTO DIRETTO||02517930729||C.C.I.A.A.||25.00||2016_05487980723
0000000000||VIDIMAZIONE REGISTRO CARICO E SCARICO||23-AFFIDAMENTO IN ECONOMIA - AFFIDAMENTO DIRETTO||02517930729||C.C.I.A.A.||25.00||2016_05487980723
0000000000||VIDIMAZIONE REGISTRO CARICO E SCARICO RIFIUTI||23-AFFIDAMENTO IN ECONOMIA - AFFIDAMENTO DIRETTO||02517930729||C.C.I.A.A.||25.00||2016_05487980723
0000000000||VIDIMAZIONE REGISTRO CARICO E SCARICO RIFIUTI||23-AFFIDAMENTO IN ECONOMIA - AFFIDAMENTO DIRETTO||02517930729||C.C.I.A.A.||25.00||2016_05487980723
0000000000||VIDIMAZIONE REGISTRO CARICO E SCARICO RIFIUTI||23-AFFIDAMENTO IN ECONOMIA - AFFIDAMENTO DIRETTO||02517930729||C.C.I.A.A.||25.00||2016_05487980723
0000000000||VIDIMAZIONE LIBRO CARICO E SCARICO RIFIUTI||23-AFFIDAMENTO IN ECONOMIA - AFFIDAMENTO DIRETTO||02517930729||C.C.I.A.A.||25.00||2016_05487980723
Z2018640AA||RINNOVO CONTRATTO PER L’ACCESSO AL SERVIZIO TELEMACO, PER IL COLLEGAMENTO ON-LINE ALLE BANCHE DATI ANAGRAFICHE DELLE CAMERE DI COMMERCIO I. A. A. ITALIANE. PERIODO: 01/03/2016  28/02/2017.||23-AFFIDAMENTO IN ECONOMIA - AFFIDAMENTO DIRETTO||02517930729||CAMERA DI COMMERCIO DI BARI||1110.00||2017_00306180720
0000000000||Attivazione firma digitale direttore generale||23-AFFIDAMENTO IN ECONOMIA - AFFIDAMENTO DIRETTO||02517930729||Camera di Commercio, Industria, Artigianaton e Agricoltura - Bari||25.00||2016_93324450720
Z0E0D7B6CB||FORNITURA DI N. 1 RADIOMICROFONO||23-AFFIDAMENTO IN ECONOMIA - AFFIDAMENTO DIRETTO||02517930729||DITTA GERRY SERVICE DI LOGISCI PIETRO||230||2015_80000350720
Z5810B1EFB||FORNITURA TONER||23-AFFIDAMENTO IN ECONOMIA - AFFIDAMENTO DIRETTO||02517930729||PIXEL SAS||969.9||2015_80000350720
Z820DCEE15||FORNITURA TONER, KIT LOGITECH WIRELESS. PIXEL SAS DI TRIGGIANI E PATERNUOSTO A. ||23-AFFIDAMENTO IN ECONOMIA - AFFIDAMENTO DIRETTO||02517930729||PIXEL SAS DI TRIGGIANI E PATERNUOSTO A.||230.28||2015_80000350720
Z3F0D4858B||INCARICO RESP.SERV.PREVENZIONE E PROTEZ.RISCHI||23-AFFIDAMENTO IN ECONOMIA - AFFIDAMENTO DIRETTO||02517930729||INGEGNERE OLGA BOFFETTI||2245.78||2015_80000350720
Z560E25473||SERVIZI SVOLTI IN ATTUAZIONE DELL'EVENTO "NATALE A BARI" DELIBERAZIONE DELLA GIUNTA CAMERALE N. 224 DEL 20/12/2013. ||23-AFFIDAMENTO IN ECONOMIA - AFFIDAMENTO DIRETTO||02517930729||MICROBATI ARTISTI ASSOCIATI||27272.73||2015_80000350720
Z020D8DD9F||SERVIZIO PUBBLICAZIONE ||23-AFFIDAMENTO IN ECONOMIA - AFFIDAMENTO DIRETTO||02517930729||Ditta A. Manzoni & C. S.p.A||1503.4||2015_80000350720
