50000613C6||SERVIZIO TELEMACO DI INFOCAMERE PER LANNO 2013.||23-AFFIDAMENTO IN ECONOMIA - AFFIDAMENTO DIRETTO||00231821007||SOCIETA' INFOCAMERE S.C.P.A||1343.10||2016_83000290714
