Z211510857||Impegno di spesa per adesione procedura di conciliazione||08-AFFIDAMENTO IN ECONOMIA - COTTIMO FIDUCIARIO||80013870177||CAMERA DI CONCILIAZIONE DELLA CAMERA DI COMMERCIO DI BRESCIA||40.00||2016_00760070177
Z530D0A4D1||CANONE ANNUALE ABBONAMENTO SERVIZIO CCIAA TELEMACO||23-AFFIDAMENTO IN ECONOMIA - AFFIDAMENTO DIRETTO||80013870177||CCIAA BRESCIA||2440.00||2017_00854910171
Z4A088A099||CANONE COLLEGAMENTO BANCA DATI CCIAA TELEMACO||23-AFFIDAMENTO IN ECONOMIA - AFFIDAMENTO DIRETTO||80013870177||CCIAA BRESCIA||2420.00||2017_00854910171
Z211510857||Impegno di spesa per adesione procedura di conciliazione||08-AFFIDAMENTO IN ECONOMIA - COTTIMO FIDUCIARIO||80013870177||CAMERA DI CONCILIAZIONE DELLA CAMERA DI COMMERCIO DI BRESCIA||40.00||2017_00760070177
Z4E0E0F444||RINNOVO CARTE TACHIGRAFICHE (N.3 CARTE CONDUCENTE E N.1 CARTA AZIENDA) PER CRONOTACHIGRAFO DIGITALE SCUOLABUS.||23-AFFIDAMENTO IN ECONOMIA - AFFIDAMENTO DIRETTO||80013870177||CAMERA DI COMM. IND. E ARTIG E AGRICOLTURA - BRESCIA||40.80||2015_00322970195
0000000000||VISURA CAMERALE - SPESE ECONOMATO||23-AFFIDAMENTO IN ECONOMIA - AFFIDAMENTO DIRETTO||80013870177||CAMERA DI COMMERCIO||7.00||2017_90016390172
Z530D0A4D1||CANONE ANNUALE ABBONAMENTO SERVIZIO CCIAA TELEMACO||23-AFFIDAMENTO IN ECONOMIA - AFFIDAMENTO DIRETTO||80013870177||CCIAA BRESCIA||2440.00||2016_00854910171
Z4A088A099||CANONE COLLEGAMENTO BANCA DATI CCIAA TELEMACO||23-AFFIDAMENTO IN ECONOMIA - AFFIDAMENTO DIRETTO||80013870177||CCIAA BRESCIA||2420.00||2016_00854910171
0000000000||IMPEGNO DI SPESA: FORNITURA DI 4 CARTE TACHIGRAFICHE||23-AFFIDAMENTO IN ECONOMIA - AFFIDAMENTO DIRETTO||80013870177||CAMERA DI COMMERCIO DI BRESCIA||85.40||2015_00724220173
0000000000||IMPEGNO DI SPESA: REGISTRAZIONE MARCHIO - CCIIA||23-AFFIDAMENTO IN ECONOMIA - AFFIDAMENTO DIRETTO||80013870177||CCIIAA_CAMERA DI COMMERCIO INDUSTRIA ED ARTIGIANATO||43.00||2015_00724220173
