Z4C15B7FC9||nolo a caldo bobcat con spazzola per pulizia percorsi di gara Palio dell'Assunta||23-AFFIDAMENTO IN ECONOMIA - AFFIDAMENTO DIRETTO||MRNTMC74H13F520F||MARINI TELEMACO||778.00||2016_00334990447
ZAF1AE7AD5||NOLO A CALDO BONCAT CON SPAZZOLA PER PULIZIA PERCORSO DI GARA CAVALCATA DELL'ASSUNTA||23-AFFIDAMENTO IN ECONOMIA - AFFIDAMENTO DIRETTO||MRNTMC74H13F520F||MARINI TELEMACO||778.00||2017_00334990447
